geometry optimzed in LAMMPS
_audit_creation_date              2020-11-30 
_audit_creation_method            'lammps2cif' 
_symmetry_space_group_name_H-M    'P1' 
_symmetry_Int_Tables_number       1 
_symmetry_cell_setting            triclinic 
loop_ 
_symmetry_equiv_pos_as_xyz 
  x,y,z 
_cell_length_a                    51.98590449 
_cell_length_b                    51.8923954588464 
_cell_length_c                    43.46803011749186 
_cell_angle_alpha                 89.94362946079801 
_cell_angle_beta                  89.97329697862858 
_cell_angle_gamma                 120.33865274787662 
loop_ 
_atom_site_label 
_atom_site_type_symbol 
_atom_site_fract_x 
_atom_site_fract_y 
_atom_site_fract_z 
_atom_site_charge 
C1          C  0.23419853  0.21202255  0.15085676     0.79800
N2          N  0.23300908  0.21067248  0.11958507    -0.78500
C3          C  0.25563965  0.23225977  0.10263091     0.82200
N4          N  0.27934365  0.25506327  0.11698322    -0.78500
C5          C  0.28102433  0.25620464  0.14805076     0.82300
N6          N  0.25836698  0.23471126  0.16492991    -0.80200
C7          C  0.23090523  0.21002424  0.02214063     0.79800
N8          N  0.23163368  0.20945273  0.05340626    -0.78500
C9          C  0.25448750  0.23214255  0.06896643     0.82200
N10         N  0.27650932  0.25544132  0.05323585    -0.78500
C11         C  0.27598283  0.25633343  0.02213040     0.82300
N12         N  0.25332543  0.23337005  0.00661005    -0.80200
C13         C  0.24699165  0.48322077  0.15089937     0.79800
N14         N  0.24647364  0.48080596  0.11968134    -0.78500
C15         C  0.22436680  0.48101615  0.10315694     0.82200
N16         N  0.20271710  0.48352188  0.11798690    -0.78500
C17         C  0.20307910  0.48613254  0.14905637     0.85100
N18         N  0.22506681  0.48557559  0.16538165    -0.80200
C19         C  0.24506670  0.47749224  0.02196197     0.79800
N20         N  0.22105949  0.47530388  0.00710608    -0.78500
C21         C  0.19863593  0.47542303  0.02292004     0.82200
N22         N  0.19992518  0.47702741  0.05404905    -0.78500
C23         C  0.22346961  0.47865104  0.06938333     0.82300
N24         N  0.24607407  0.47883821  0.05329147    -0.80200
C25         C  0.48795295  0.23861177  0.14788187     0.79800
N26         N  0.49169489  0.24051269  0.11681788    -0.78500
C27         C  0.49362577  0.21886134  0.10121125     0.82200
N28         N  0.49200038  0.19536309  0.11679654    -0.78500
C29         C  0.48854450  0.19332149  0.14777860     0.82300
N30         N  0.48638693  0.21492680  0.16312305    -0.80200
C31         C  0.49982875  0.24250709  0.01943576     0.79800
N32         N  0.49697151  0.24213373  0.05063963    -0.78500
C33         C  0.49729978  0.22026783  0.06763078     0.82200
N34         N  0.50030744  0.19873477  0.05337133    -0.78500
C35         C  0.50246775  0.19831175  0.02237698     0.82300
N36         N  0.50228550  0.22033284  0.00551069    -0.80200
O37         O  0.00789389  0.40931371  0.36869231    -0.88600
C38         C  0.07286367  0.06271606  0.29053980     1.11400
O39         O  0.48342127  0.44574603  0.33499922    -1.36400
O40         O  0.07639044  0.04092930  0.37004962    -0.90100
O41         O  0.45815056  0.38605048  0.37049391    -0.90800
O42         O  0.45331657  0.44658308  0.40026488    -0.79600
O43         O  0.04186928  0.47578868  0.36361169    -1.01700
C44         C  0.48411539  0.02991144  0.39312549     1.21500
O45         O  0.45319387  0.47728197  0.33595142    -1.36600
Mn46       Mn  0.48369544  0.47739847  0.30191482     1.82100
O47         O  0.48451728  0.00701833  0.40182280    -0.78700
O48         O  0.05439651  0.06842105  0.36842650    -0.88100
C49         C  0.48145852  0.03027018  0.28105678     1.12600
C50         C  0.07364524  0.06264261  0.37922263     1.07300
O51         O  0.45279871  0.44709707  0.27096090    -0.79600
O52         O  0.01689971  0.00788200  0.33584745    -1.33300
O53         O  0.42488047  0.41819965  0.30618226    -0.98800
C54         C  0.39791237  0.47636567  0.38179619     1.06000
Mn55       Mn  0.02046420  0.05045486  0.33550734     1.48600
O56         O  0.39231334  0.45196032  0.36918662    -0.88000
Mn57       Mn  0.44341166  0.40358466  0.33562846     1.49600
O58         O  0.00796794  0.41008220  0.29973339    -0.91900
C59         C  0.03828233  0.47573280  0.39122759     1.19200
C60         C  0.48172267  0.38897027  0.29038702     1.11300
Mn61       Mn  0.48460030  0.47720923  0.36876516     1.81000
O62         O  0.48123507  0.03326024  0.30869760    -0.97000
Mn63       Mn  0.02312281  0.44256488  0.33451557     1.49300
C64         C  0.48298648  0.39001527  0.38012908     1.07800
Mn65       Mn  0.44811796  0.01322425  0.33797965     1.49900
C66         C  0.39693568  0.47782955  0.29342915     1.10700
O67         O  0.42544410  0.41902670  0.36435099    -1.02800
O68         O  0.05232053  0.06748320  0.29970944    -0.92500
C69         C  0.42997796  0.42346551  0.39191086     1.22000
O70         O  0.48240000  0.03294161  0.36570531    -1.03200
O71         O  0.07673627  0.04229713  0.30180471    -0.90600
O72         O  0.41498243  0.99777238  0.30414707    -0.90200
O73         O  0.45738734  0.38480578  0.30165948    -0.90300
Mn74       Mn  0.05817109  0.00900270  0.33526277     1.47900
O75         O  0.48229896  0.00782390  0.27169604    -0.78700
C76         C  0.42998763  0.42339299  0.27870553     1.15000
O77         O  0.01542190  0.47588102  0.40025094    -0.77500
O78         O  0.01519930  0.47783729  0.27047794    -0.77100
Mn79       Mn  0.41071381  0.43741909  0.33521448     1.51100
O80         O  0.41574588  0.99630029  0.37323938    -0.89400
O81         O  0.04232945  0.47661011  0.30600743    -0.97000
O82         O  0.39343603  0.45253292  0.30076780    -0.92000
C83         C  0.03809601  0.47738189  0.27851369     1.12800
C84         C  0.48416234  0.09795343  0.42554245    -0.11800
C85         C  0.50476016  0.10621764  0.44949902     0.14700
C86         C  0.51784437  0.08863693  0.45573706     0.01600
C87         C  0.50942739  0.06275895  0.43833838    -0.16200
C88         C  0.48896447  0.05462522  0.41399687    -0.11000
C89         C  0.98397392  0.07739479  0.40630481     0.08300
C90         C  0.50921589  0.13147067  0.46918923     0.09400
S91         S  0.54607688  0.09871047  0.48475857    -0.25300
H92         H  0.51998869  0.04970868  0.44288780     0.19600
S93         S  0.96183967  0.07237966  0.37230214    -0.31000
H94         H  0.98134505  0.11575718  0.42029642     0.10000
C95         C  0.02411405  0.15966231  0.46624756     0.03200
C96         C  0.01813969  0.17916229  0.98195588    -0.13300
C97         C  0.50518245  0.17417460  0.00711326    -0.09000
C98         C  0.49283440  0.14668591  0.51469902     0.06600
C99         C  0.49497371  0.12490263  0.49781331    -0.14100
S100        S  0.05071590  0.17150838  0.43508181    -0.31000
H101        H  0.03084647  0.20230383  0.97489701     0.10900
S102        S  0.47027504  0.13406890  0.54901521    -0.28100
H103        H  0.48370940  0.10206834  0.50614250     0.08100
H104        H  0.96352208  0.10029315  0.37297654     0.26500
H105        H  0.05418652  0.19872095  0.93268041     0.21300
H106        H  0.45453841  0.14883923  0.54206632     0.26600
H107        H  0.55629849  0.12537503  0.99206919     0.15500
C108        C  0.46307959  0.32337996  0.43311785    -0.11800
C109        C  0.48983499  0.33358521  0.44928011     0.14700
C110        C  0.01104382  0.35963659  0.44319571     0.01600
C111        C  0.00899154  0.37831689  0.42124242    -0.16200
C112        C  0.48359491  0.37072493  0.40539606    -0.11000
C113        C  0.45947697  0.34160372  0.41179251     0.08300
C114        C  0.49363647  0.31201068  0.46858851     0.09400
S115        S  0.04536092  0.37412301  0.46441324    -0.25300
H116        H  0.02821856  0.40032401  0.41752816     0.19600
S117        S  0.42419426  0.32536612  0.39223818    -0.31000
H118        H  0.44502092  0.30067731  0.43662329     0.10000
C119        C  0.47634705  0.29884068  0.49518609     0.03200
C120        C  0.48039642  0.27714911  0.01065842    -0.13300
C121        C  0.49996218  0.26851199  0.50181413    -0.09000
C122        C  0.51800296  0.28255114  0.47575196     0.06600
C123        C  0.51443330  0.30387566  0.45934730    -0.14100
S124        S  0.95199529  0.31261423  0.01102978    -0.31000
H125        H  0.46770138  0.26854137  0.03169354     0.10900
S126        S  0.54658866  0.27457133  0.46387993    -0.28100
H127        H  0.52775153  0.31420184  0.43901454     0.08100
H128        H  0.41743078  0.34638590  0.40442283     0.26500
H129        H  0.94255731  0.29553749  0.03820026     0.21300
H130        H  0.55955730  0.29678021  0.44106137     0.26600
H131        H  0.03243820  0.35756366  0.49136756     0.15500
C132        C  0.98673650  0.12147001  0.17330944    -0.11800
C133        C  0.47985700  0.11774839  0.19847619     0.14700
C134        C  0.46096377  0.12941421  0.20447129     0.01600
C135        C  0.46460357  0.15416805  0.18785855    -0.16200
C136        C  0.48633081  0.16745465  0.16475215    -0.11000
C137        C  0.99035529  0.14600982  0.15624339     0.08300
C138        C  0.48020865  0.09486274  0.21882374     0.09400
S139        S  0.43181229  0.11377984  0.23310236    -0.25300
H140        H  0.44999148  0.16289752  0.19275752     0.19600
S141        S  0.01658919  0.15821771  0.12481671    -0.31000
H142        H  0.99938511  0.11088748  0.16692782     0.10000
C143        C  0.47297151  0.06629602  0.20826099     0.03200
C144        C  0.47396827  0.04581007  0.22880364    -0.13300
C145        C  0.48153135  0.05305361  0.25995434    -0.09000
C146        C  0.98941693  0.08211454  0.26900413     0.06600
C147        C  0.98515708  0.10061093  0.24880466    -0.14100
S148        S  0.46104746  0.05541759  0.16904913    -0.31000
H149        H  0.46812408  0.02379018  0.22071660     0.10900
S150        S  0.00944416  0.09845033  0.30434313    -0.28100
H151        H  0.99353228  0.12375791  0.25483025     0.08100
H152        H  0.03015463  0.18872055  0.13224997     0.26500
H153        H  0.46016163  0.02788821  0.17018053     0.21300
H154        H  0.00410855  0.12245992  0.30523231     0.26600
H155        H  0.42668226  0.08448363  0.23155682     0.15500
C156        C  0.97334103  0.30108773  0.17356863    -0.11800
C157        C  0.48528989  0.30596572  0.20366001     0.14700
C158        C  0.49876473  0.28991159  0.21440926     0.01600
C159        C  0.49979659  0.26879440  0.19536997    -0.16200
C160        C  0.48725318  0.26265903  0.16575344    -0.11000
C161        C  0.97190535  0.27815888  0.15510088     0.08300
C162        C  0.48401617  0.32883013  0.22293300     0.09400
S163        S  0.51482705  0.29503420  0.25230407    -0.25300
H164        H  0.51038678  0.25681684  0.20399456     0.19600
S165        S  0.95443761  0.27153358  0.11771181    -0.31000
H166        H  0.96453858  0.31474125  0.16514111     0.10000
C167        C  0.00975121  0.35745414  0.22770290     0.03200
C168        C  0.00824892  0.37705275  0.24893564    -0.13300
C169        C  0.48105217  0.36861299  0.26556466    -0.09000
C170        C  0.45489168  0.34148903  0.25718824     0.06600
C171        C  0.45681134  0.32208711  0.23619968    -0.14100
S172        S  0.04408572  0.36822898  0.20749591    -0.31000
H173        H  0.02797568  0.39851895  0.25308854     0.10900
S174        S  0.41848053  0.32902355  0.27314714    -0.28100
H175        H  0.43697223  0.30103589  0.23076883     0.08100
H176        H  0.95147583  0.29701644  0.11697080     0.26500
H177        H  0.06159311  0.39555109  0.22278069     0.21300
H178        H  0.41794873  0.35431161  0.26273632     0.26600
H179        H  0.49524701  0.30224871  0.26709483     0.15500
C180        C  0.29931758  0.49374158  0.45794716    -0.11800
C181        C  0.31154025  0.47610201  0.46638100     0.14700
C182        C  0.30241085  0.45984865  0.49423484     0.01600
C183        C  0.28322886  0.46234446  0.01464326    -0.16200
C184        C  0.26779035  0.47793734  0.50369719    -0.11000
C185        C  0.27794497  0.49515277  0.47635122     0.08300
C186        C  0.33363268  0.47512170  0.44549084     0.09400
S187        S  0.31934776  0.43778397  0.01220445    -0.25300
H188        H  0.27685892  0.45131989  0.03682769     0.19600
S189        S  0.26320331  0.01408274  0.46043066    -0.31000
H190        H  0.30188084  0.99683265  0.43395183     0.10000
C191        C  0.32444349  0.45678764  0.41919035     0.03200
C192        C  0.34592977  0.45703165  0.39941013    -0.13300
C193        C  0.37659571  0.47520066  0.40535179    -0.09000
C194        C  0.38562175  0.49264882  0.43246990     0.06600
C195        C  0.36413699  0.49277199  0.45193390    -0.14100
S196        S  0.28526830  0.43299227  0.41091506    -0.31000
H197        H  0.33881540  0.44356007  0.37875261     0.10900
S198        S  0.42110327  0.00871870  0.44448427    -0.28100
H199        H  0.36825455  0.00036625  0.47261820     0.08100
H200        H  0.26314971  0.02633250  0.48929132     0.26500
H201        H  0.28880257  0.41850007  0.38531544     0.21300
H202        H  0.42996537  0.98938958  0.43207300     0.26600
H203        H  0.32146569  0.42828098  0.47788228     0.15500
C204        C  0.10988016  0.48332009  0.42400656    -0.11800
C205        C  0.10087273  0.47174104  0.45363608     0.14700
C206        C  0.07147071  0.46234791  0.46324362     0.01600
C207        C  0.05178498  0.46473352  0.44288937    -0.16200
C208        C  0.06051418  0.47555004  0.41272020    -0.11000
C209        C  0.09022118  0.48507162  0.40331710     0.08300
C210        C  0.12323637  0.47021020  0.47352355     0.09400
S211        S  0.05755015  0.44659567  0.50077672    -0.25300
H212        H  0.02917490  0.45714078  0.45036475     0.19600
S213        S  0.10484191  0.99829862  0.36498568    -0.31000
H214        H  0.13269996  0.98723577  0.41607362     0.10000
C215        C  0.13374151  0.45057826  0.46652357     0.03200
C216        C  0.15726819  0.45196834  0.48360697    -0.13300
C217        C  0.17316574  0.47384753  0.00608251    -0.09000
C218        C  0.16134774  0.49244519  0.01316496     0.06600
C219        C  0.13662128  0.49094837  0.49742029    -0.14100
S220        S  0.11755130  0.42407427  0.43540655    -0.31000
H221        H  0.16526547  0.43681646  0.47839190     0.10900
S222        S  0.17468661  0.01860870  0.04147756    -0.28100
H223        H  0.12405803  0.99870962  0.50450657     0.08100
H224        H  0.13429577  0.00459922  0.36906210     0.26500
H225        H  0.13569534  0.41130647  0.43849847     0.21300
H226        H  0.20465068  0.02720441  0.03602254     0.26600
H227        H  0.07646284  0.43492918  0.50540806     0.15500
C228        C  0.32119202  0.49327497  0.17890679    -0.11800
C229        C  0.31246779  0.47743231  0.20673829     0.14700
C230        C  0.28228979  0.46333840  0.21579612     0.01600
C231        C  0.26169199  0.46592425  0.19730485    -0.16200
C232        C  0.27027400  0.48190122  0.16945365    -0.11000
C233        C  0.30056176  0.49589737  0.16033695     0.08300
C234        C  0.33557950  0.47843115  0.22744590     0.09400
S235        S  0.26875900  0.44196493  0.25086282    -0.25300
H236        H  0.23859303  0.45495292  0.20457986     0.19600
S237        S  0.31478583  0.51913488  0.12658695    -0.31000
H238        H  0.34446592  0.50462813  0.17220660     0.10000
C239        C  0.34797279  0.46004496  0.22289531     0.03200
C240        C  0.36824417  0.46040853  0.24454547    -0.13300
C241        C  0.37631214  0.47883341  0.27066398    -0.09000
C242        C  0.36371227  0.49719422  0.27503697     0.06600
C243        C  0.34393891  0.49710920  0.25321947    -0.14100
S244        S  0.33704851  0.43530878  0.19023202    -0.31000
H245        H  0.37773249  0.44622279  0.24127273     0.10900
S246        S  0.37747682  0.02403644  0.29663652    -0.28100
H247        H  0.33926277  0.01001966  0.24571430     0.08100
H248        H  0.29682870  0.53209899  0.12996758     0.26500
H249        H  0.35478002  0.42275799  0.19741825     0.21300
H250        H  0.37215262  0.00491040  0.32184781     0.26600
H251        H  0.28921163  0.43179583  0.25129233     0.15500
C252        C  0.15914774  0.50244707  0.20815532    -0.11800
C253        C  0.12982093  0.48331955  0.19821647     0.14700
C254        C  0.12494131  0.46740132  0.17044120     0.01600
C255        C  0.14936032  0.46989049  0.15413608    -0.16200
C256        C  0.17866325  0.48767569  0.16502944    -0.11000
C257        C  0.18353568  0.50508501  0.19175878     0.08300
C258        C  0.10507554  0.48025902  0.21778840     0.09400
S259        S  0.08828226  0.44292568  0.15489890    -0.25300
H260        H  0.14529029  0.45677028  0.13342733     0.19600
S261        S  0.21750350  0.02150003  0.20559798    -0.31000
H262        H  0.16091844  0.00764516  0.22851251     0.10000
C263        C  0.09939823  0.46617714  0.24671637     0.03200
C264        C  0.07713178  0.46528659  0.26556137    -0.13300
C265        C  0.06002510  0.47796714  0.25618514    -0.09000
C266        C  0.06531389  0.49143212  0.22670471     0.06600
C267        C  0.08768549  0.49233608  0.20788566    -0.14100
S268        S  0.12025091  0.44890776  0.25952482    -0.31000
H269        H  0.07302743  0.45459832  0.28786597     0.10900
S270        S  0.04541991  0.50891904  0.21205242    -0.28100
H271        H  0.09209212  0.50318253  0.18562193     0.08100
H272        H  0.23037980  0.03007791  0.17616479     0.26500
H273        H  0.10515029  0.43769692  0.28758425     0.21300
H274        H  0.04711535  0.52390070  0.23951024     0.26600
H275        H  0.07265784  0.43549283  0.18288392     0.15500
C276        C  0.39284905  0.37438056  0.46241328    -0.11800
C277        C  0.36366854  0.35646509  0.45146070     0.14700
C278        C  0.35618110  0.36217256  0.42205987     0.01600
C279        C  0.37827481  0.38427849  0.40363083    -0.16200
C280        C  0.40786674  0.40164446  0.41390701    -0.11000
C281        C  0.41508891  0.39669577  0.44392800     0.08300
C282        C  0.34175441  0.33112927  0.47042563     0.09400
S283        S  0.31891797  0.34186817  0.40651596    -0.25300
H284        H  0.37214872  0.38798640  0.38091354     0.19600
S285        S  0.45231302  0.41654068  0.45938138    -0.31000
H286        H  0.39860729  0.37010640  0.48506616     0.10000
C287        C  0.33092783  0.30132036  0.46129986     0.03200
C288        C  0.30809087  0.27802173  0.47830921    -0.13300
C289        C  0.30013891  0.28186607  0.00529673    -0.09000
C290        C  0.30793265  0.31378524  0.51432343     0.06600
C291        C  0.33060064  0.33700990  0.49718389    -0.14100
S292        S  0.34676936  0.29293096  0.42847259    -0.31000
H293        H  0.29970190  0.25511326  0.47133146     0.10900
S294        S  0.29588120  0.32234847  0.04595337    -0.28100
H295        H  0.33892915  0.35993694  0.50416094     0.08100
H296        H  0.46589584  0.41379064  0.43260540     0.26500
H297        H  0.32783585  0.26175791  0.42924508     0.21300
H298        H  0.26615585  0.29993415  0.04068006     0.26600
H299        H  0.30398746  0.33588458  0.43489413     0.15500
C300        C  0.15312059  0.14546742  0.49756597    -0.11800
C301        C  0.16056707  0.13901341  0.46875360     0.14700
C302        C  0.19036910  0.15512346  0.45855752     0.01600
C303        C  0.21178680  0.17829101  0.47658152    -0.16200
C304        C  0.20442024  0.18559950  0.50510493    -0.11000
C305        C  0.17589647  0.17286715  0.01382061     0.08300
C306        C  0.13644541  0.11861903  0.44785407     0.09400
S307        S  0.20224846  0.14770861  0.42229935    -0.25300
H308        H  0.23452847  0.19068316  0.46820774     0.19600
S309        S  0.16425882  0.18632636  0.04609620    -0.31000
H310        H  0.13011790  0.13334405  0.50520308     0.10000
C311        C  0.12435092  0.08747750  0.44870520     0.03200
C312        C  0.10333197  0.06959967  0.42644364    -0.13300
C313        C  0.09436571  0.08232590  0.40323717    -0.09000
C314        C  0.10654549  0.11364899  0.40273541     0.06600
C315        C  0.12697446  0.13127627  0.42530748    -0.14100
S316        S  0.13680895  0.07074976  0.47707880    -0.31000
H317        H  0.09417189  0.04565672  0.42680046     0.10900
S318        S  0.09908293  0.13289018  0.37259377    -0.28100
H319        H  0.13664780  0.15530430  0.42450582     0.08100
H320        H  0.18515866  0.21665239  0.04088486     0.26500
H321        H  0.11774455  0.04088264  0.46824961     0.21300
H322        H  0.10128438  0.11590246  0.34859412     0.26600
H323        H  0.18152503  0.11691990  0.42191030     0.15500
C324        C  0.39745799  0.37722572  0.20589111    -0.11800
C325        C  0.36765397  0.35908092  0.21475561     0.14700
C326        C  0.35813401  0.36363044  0.24355498     0.01600
C327        C  0.37889972  0.38491929  0.26365684    -0.16200
C328        C  0.40910462  0.40241163  0.25550398    -0.11000
C329        C  0.41832335  0.39876610  0.22589465     0.08300
C330        C  0.34773865  0.33325104  0.19541848     0.09400
S331        S  0.31988453  0.34245655  0.25621314    -0.25300
H332        H  0.37134910  0.38778882  0.28595423     0.19600
S333        S  0.45653073  0.41879238  0.21302411    -0.31000
H334        H  0.40479217  0.37353681  0.18383767     0.10000
C335        C  0.33480130  0.33644195  0.16831181     0.03200
C336        C  0.31383889  0.31082532  0.15253924    -0.13300
C337        C  0.30589744  0.28218633  0.16322750    -0.09000
C338        C  0.32059176  0.27923508  0.18910260     0.06600
C339        C  0.34097388  0.30474763  0.20520330    -0.14100
S340        S  0.34398831  0.37293869  0.15457059    -0.31000
H341        H  0.30280963  0.31304046  0.13243249     0.10900
S342        S  0.31502362  0.24375712  0.20206808    -0.28100
H343        H  0.35165913  0.30242692  0.22557537     0.08100
H344        H  0.46836576  0.41561305  0.24084697     0.26500
H345        H  0.32444597  0.36317555  0.12928189     0.21300
H346        H  0.30945488  0.23071286  0.17266023     0.26600
H347        H  0.30713678  0.33770619  0.22674708     0.15500
C348        C  0.17569841  0.17519838  0.21351609    -0.11800
C349        C  0.16301492  0.14500693  0.20577956     0.14700
C350        C  0.17282363  0.13695020  0.17912430     0.01600
C351        C  0.19586664  0.15924550  0.16142673    -0.16200
C352        C  0.20903486  0.18951487  0.16948139    -0.11000
C353        C  0.19823860  0.19750890  0.19552539     0.08300
C354        C  0.13973055  0.12266120  0.22624865     0.09400
S355        S  0.15720485  0.09872771  0.16677233    -0.25300
H356        H  0.20379606  0.15288739  0.14140181     0.19600
S357        S  0.21127494  0.23568457  0.20643185    -0.31000
H358        H  0.16778459  0.18142103  0.23366134     0.10000
C359        C  0.14596697  0.10604969  0.24741514     0.03200
C360        C  0.12350846  0.08629816  0.26750367    -0.13300
C361        C  0.09464371  0.08244580  0.26676897    -0.09000
C362        C  0.08840217  0.09841841  0.24439994     0.06600
C363        C  0.11108707  0.11873210  0.22499180    -0.14100
S364        S  0.18283067  0.11083000  0.24963015    -0.31000
H365        H  0.12879582  0.07437878  0.28443865     0.10900
S366        S  0.05196370  0.09302422  0.23785492    -0.28100
H367        H  0.10625355  0.13122174  0.20827412     0.08100
H368        H  0.21470339  0.24644051  0.17609569     0.26500
H369        H  0.17596779  0.08811364  0.27132588     0.21300
H370        H  0.03733020  0.06196550  0.24210943     0.26600
H371        H  0.12859803  0.08809134  0.17914252     0.15500
C372        C  0.23033095  0.21401601  0.65048065     0.79800
N373        N  0.22988283  0.21265533  0.61925768    -0.78500
C374        C  0.25269164  0.23441245  0.60267097     0.82200
N375        N  0.27602484  0.25737729  0.61738830    -0.78500
C376        C  0.27697722  0.25852786  0.64854569     0.82300
N377        N  0.25395727  0.23690335  0.66493266    -0.80200
C378        C  0.22842046  0.21106028  0.52237025     0.79800
N379        N  0.22941239  0.21078127  0.55360599    -0.78500
C380        C  0.25185628  0.23403103  0.56899930     0.82200
N381        N  0.27343000  0.25754125  0.55310065    -0.78500
C382        C  0.27267327  0.25816984  0.52197135     0.82300
N383        N  0.25029843  0.23473842  0.50670808    -0.80200
C384        C  0.24300986  0.47370209  0.65087045     0.79800
N385        N  0.24266945  0.47309246  0.61955084    -0.78500
C386        C  0.22034373  0.47366690  0.60379141     0.82200
N387        N  0.19832099  0.47481740  0.61950750    -0.78500
C388        C  0.19844669  0.47554695  0.65073489     0.85100
N389        N  0.22063615  0.47456577  0.66617588    -0.80200
C390        C  0.24264403  0.47580343  0.52206383     0.79800
N391        N  0.21893349  0.47458073  0.50749215    -0.78500
C392        C  0.19617628  0.47363270  0.52372638     0.82200
N393        N  0.19682220  0.47322532  0.55491506    -0.78500
C394        C  0.22001968  0.47370583  0.56989006     0.82300
N395        N  0.24294238  0.47498582  0.55339504    -0.80200
C396        C  0.49072773  0.23901735  0.64706217     0.79800
N397        N  0.49510678  0.24123240  0.61610260    -0.78500
C398        C  0.49658097  0.21949237  0.60015691     0.82200
N399        N  0.49405933  0.19542015  0.61538595    -0.78500
C400        C  0.48979287  0.19291304  0.64630367     0.82300
N401        N  0.48792339  0.21458344  0.66188099    -0.80200
C402        C  0.50159940  0.24467016  0.51924271     0.79800
N403        N  0.49926438  0.24355245  0.55046484    -0.78500
C404        C  0.50008644  0.22146881  0.56649595     0.82200
N405        N  0.50290126  0.20027819  0.55114927    -0.78500
C406        C  0.50449913  0.20055885  0.51998427     0.82300
N407        N  0.50396258  0.22294752  0.50415681    -0.80200
O408        O  0.00745534  0.40863342  0.86983121    -0.88600
C409        C  0.07153406  0.06359105  0.79055648     1.11400
O410        O  0.48573547  0.44607212  0.83450800    -1.36400
O411        O  0.07548269  0.04181507  0.87008034    -0.90100
O412        O  0.46200393  0.38621887  0.86871124    -0.90800
O413        O  0.45531684  0.44520852  0.90005447    -0.79600
O414        O  0.04153764  0.47485757  0.86379855    -1.01700
C415        C  0.48806956  0.03182533  0.89425368     1.21500
O416        O  0.45360902  0.47568296  0.83600824    -1.36600
Mn417      Mn  0.48488748  0.47732625  0.80172633     1.82100
O418        O  0.48757671  0.00835898  0.90236505    -0.78700
O419        O  0.05276154  0.06854960  0.86929475    -0.88100
C420        C  0.48383811  0.03253843  0.78195500     1.12600
C421        C  0.07231944  0.06311866  0.87992758     1.07300
O422        O  0.45435498  0.44658799  0.77056944    -0.79600
O423        O  0.01596694  0.00854004  0.83557720    -1.33300
O424        O  0.42691941  0.41744122  0.80595395    -0.98800
C425        C  0.39743146  0.47218129  0.88267179     1.06000
Mn426      Mn  0.01916725  0.05092273  0.83578693     1.48600
O427        O  0.39273462  0.44796275  0.87043073    -0.88000
Mn428      Mn  0.44646067  0.40343221  0.83471177     1.49600
O429        O  0.00611800  0.40836402  0.80086644    -0.91900
C430        C  0.03874253  0.47516032  0.89147476     1.19200
C431        C  0.48593377  0.39070107  0.78926934     1.11300
Mn432      Mn  0.48569372  0.47665283  0.86865060     1.81000
O433        O  0.48467191  0.03621353  0.80962736    -0.97000
Mn434      Mn  0.02213591  0.44133846  0.83524593     1.49300
C435        C  0.48684262  0.39046995  0.87851693     1.07800
Mn436      Mn  0.45199595  0.01685681  0.83957936     1.49900
C437        C  0.39589232  0.47426134  0.79397388     1.10700
O438        O  0.42773043  0.41734966  0.86416754    -1.02800
O439        O  0.05114071  0.06841536  0.80011071    -0.92500
C440        C  0.43245976  0.42165833  0.89173568     1.22000
O441        O  0.48660004  0.03553582  0.86689901    -1.03200
O442        O  0.07569047  0.04334100  0.80170698    -0.90600
O443        O  0.41860023  0.00275379  0.80646823    -0.90200
O444        O  0.46140605  0.38622264  0.80026996    -0.90300
Mn445      Mn  0.05733239  0.01002468  0.83498694     1.47900
O446        O  0.48457805  0.01002689  0.77261447    -0.78700
C447        C  0.43157771  0.42285594  0.77847503     1.15000
O448        O  0.01630307  0.47576794  0.90114983    -0.77500
O449        O  0.01375213  0.47646909  0.77105380    -0.77100
Mn450      Mn  0.41173518  0.43503141  0.83568484     1.51100
O451        O  0.41994635  0.00030972  0.87524558    -0.89400
O452        O  0.04085362  0.47498767  0.80639637    -0.97000
O453        O  0.39281323  0.44929261  0.80205186    -0.92000
C454        C  0.03635543  0.47533976  0.77895377     1.12800
C455        C  0.48695201  0.09813185  0.92989598    -0.11800
C456        C  0.50601608  0.10464599  0.95499065     0.14700
C457        C  0.51860524  0.08656303  0.96085522     0.01600
C458        C  0.51131610  0.06199170  0.94168856    -0.16200
C459        C  0.49252698  0.05576116  0.91607702    -0.11000
C460        C  0.97963097  0.07480862  0.90757523     0.08300
C461        C  0.51023737  0.12951479  0.97508888     0.09400
S462        S  0.54480384  0.09435490  0.99156165    -0.25300
H463        H  0.52138244  0.04845558  0.94602119     0.19600
S464        S  0.95718573  0.06960597  0.87375614    -0.31000
H465        H  0.97583623  0.11223104  0.92260803     0.10000
C466        C  0.02102461  0.15751516  0.96549629     0.03200
C467        C  0.02014235  0.18080451  0.48251220    -0.13300
C468        C  0.50623050  0.17638471  0.50331973    -0.09000
C469        C  0.49120096  0.14448714  0.01862483     0.06600
C470        C  0.49418821  0.12270133  0.00267319    -0.14100
S471        S  0.04541923  0.16825775  0.93244742    -0.31000
H472        H  0.03325341  0.20417564  0.47640149     0.10900
S473        S  0.46707560  0.13202670  0.05183645    -0.28100
H474        H  0.48220869  0.09978017  0.01070294     0.08100
H475        H  0.95101699  0.09263234  0.87936235     0.26500
H476        H  0.05920569  0.20189687  0.43576158     0.21300
H477        H  0.45208183  0.14725669  0.04365677     0.26600
H478        H  0.55751394  0.12968320  0.48282386     0.15500
C479        C  0.46559768  0.32170547  0.92844016    -0.11800
C480        C  0.49126431  0.33166386  0.94635426     0.14700
C481        C  0.01236190  0.35958446  0.94363457     0.01600
C482        C  0.00976102  0.37814772  0.92195976    -0.16200
C483        C  0.48698006  0.37022711  0.90291265    -0.11000
C484        C  0.46303593  0.34050040  0.90708211     0.08300
C485        C  0.49392763  0.30963972  0.96592142     0.09400
S486        S  0.04758005  0.37374832  0.96308231    -0.25300
H487        H  0.02910189  0.39987146  0.91741167     0.19600
S488        S  0.42954194  0.32412172  0.88430017    -0.31000
H489        H  0.44764659  0.29874625  0.93056946     0.10000
C490        C  0.47768619  0.29862032  0.99346376     0.03200
C491        C  0.47969732  0.27730311  0.51152021    -0.13300
C492        C  0.49882212  0.26612183  0.00075989    -0.09000
C493        C  0.51546810  0.27767816  0.97325086     0.06600
C494        C  0.51270446  0.29916794  0.95620417    -0.14100
S495        S  0.94574954  0.30834384  0.50631840    -0.31000
H496        H  0.46611723  0.26688770  0.53167794     0.10900
S497        S  0.54152988  0.26661622  0.96025368    -0.28100
H498        H  0.52524353  0.30800016  0.93511146     0.08100
H499        H  0.41969916  0.34243407  0.89744105     0.26500
H500        H  0.93482003  0.29014787  0.53264039     0.21300
H501        H  0.55037547  0.28348552  0.93293690     0.26600
H502        H  0.03576237  0.35752379  0.99045533     0.15500
C503        C  0.98112862  0.11878366  0.67205849    -0.11800
C504        C  0.47901697  0.11659055  0.69685542     0.14700
C505        C  0.45733093  0.12533198  0.69842138     0.01600
C506        C  0.46158340  0.15038287  0.68189136    -0.16200
C507        C  0.48666212  0.16662184  0.66302509    -0.11000
C508        C  0.98494702  0.14324185  0.65467854     0.08300
C509        C  0.47847276  0.09384770  0.71809098     0.09400
S510        S  0.42382098  0.10548999  0.72116496    -0.25300
H511        H  0.44497347  0.15708179  0.68349101     0.19600
S512        S  0.01008817  0.15398267  0.62239026    -0.31000
H513        H  0.99302219  0.10750982  0.66536809     0.10000
C514        C  0.47631098  0.06714637  0.70758882     0.03200
C515        C  0.47774597  0.04743074  0.72884096    -0.13300
C516        C  0.48177463  0.05399789  0.76051008    -0.09000
C517        C  0.98685096  0.08219849  0.76852502     0.06600
C518        C  0.98147848  0.10001007  0.74836638    -0.14100
S519        S  0.47130752  0.05800576  0.66716293    -0.31000
H520        H  0.47599320  0.02691465  0.72065530     0.10900
S521        S  0.00749254  0.09916466  0.80343342    -0.28100
H522        H  0.98939311  0.12311842  0.75411614     0.08100
H523        H  0.02539685  0.18455008  0.62986145     0.26500
H524        H  0.46924598  0.03000488  0.66981174     0.21300
H525        H  0.00609370  0.12551047  0.80202046     0.26600
H526        H  0.42191721  0.07750253  0.71970479     0.15500
C527        C  0.96975536  0.29958273  0.67350183    -0.11800
C528        C  0.49036501  0.30796765  0.70297209     0.14700
C529        C  0.49475746  0.28564645  0.71610062     0.01600
C530        C  0.49444709  0.26368988  0.69727228    -0.16200
C531        C  0.49020215  0.26328476  0.66521388    -0.11000
C532        C  0.96856596  0.27698913  0.65457807     0.08300
C533        C  0.48877046  0.33065263  0.72221098     0.09400
S534        S  0.50038520  0.28338105  0.75681331    -0.25300
H535        H  0.49797591  0.24688299  0.70802332     0.19600
S536        S  0.95184346  0.27120250  0.61687349    -0.31000
H537        H  0.96129763  0.31357103  0.66518975     0.10000
C538        C  0.00688183  0.35460580  0.72936668     0.03200
C539        C  0.00593637  0.37419895  0.75103698    -0.13300
C540        C  0.48545271  0.37042113  0.76451512    -0.09000
C541        C  0.45972634  0.34243009  0.75749137     0.06600
C542        C  0.46188044  0.32295698  0.73682787    -0.14100
S543        S  0.04137435  0.36427405  0.71005148    -0.31000
H544        H  0.02620750  0.39491404  0.75607159     0.10900
S545        S  0.42364943  0.32903092  0.77480351    -0.28100
H546        H  0.44245794  0.30126559  0.73245736     0.08100
H547        H  0.94836613  0.29638431  0.61679687     0.26500
H548        H  0.05918404  0.39155234  0.72523772     0.21300
H549        H  0.42101967  0.35288042  0.76322842     0.26600
H550        H  0.51157650  0.31353453  0.76408691     0.15500
C551        C  0.29889490  0.48929428  0.95677132    -0.11800
C552        C  0.31162613  0.47264992  0.96710178     0.14700
C553        C  0.30397295  0.45934776  0.99658531     0.01600
C554        C  0.28089491  0.46113053  0.51266605    -0.16200
C555        C  0.26962228  0.47812482  0.00383218    -0.11000
C556        C  0.27847030  0.49257804  0.97485461     0.08300
C557        C  0.33339351  0.47048469  0.94674702     0.09400
S558        S  0.31697690  0.43669657  0.50721457    -0.25300
H559        H  0.27351714  0.44797533  0.53359375     0.19600
S560        S  0.26390442  0.01526089  0.95724780    -0.31000
H561        H  0.30385901  0.99885156  0.93254519     0.10000
C562        C  0.32411493  0.45278873  0.91995760     0.03200
C563        C  0.34553474  0.45291589  0.90017445    -0.13300
C564        C  0.37615949  0.47039736  0.90653788    -0.09000
C565        C  0.38522663  0.48687798  0.93425111     0.06600
C566        C  0.36385435  0.48710684  0.95376328    -0.14100
S567        S  0.28497112  0.43015970  0.91087498    -0.31000
H568        H  0.33845165  0.44009288  0.87908526     0.10900
S569        S  0.42382154  0.01506502  0.94477258    -0.28100
H570        H  0.37047848  0.00638194  0.97161102     0.08100
H571        H  0.26349314  0.02802570  0.98566594     0.26500
H572        H  0.28839571  0.41609110  0.88483003     0.21300
H573        H  0.43340877  0.99580120  0.93383897     0.26600
H574        H  0.32406447  0.42769675  0.98393389     0.15500
C575        C  0.11034333  0.48084386  0.92161977    -0.11800
C576        C  0.10236830  0.47060327  0.95183290     0.14700
C577        C  0.07374014  0.46297899  0.96267703     0.01600
C578        C  0.05370214  0.46542151  0.94292252    -0.16200
C579        C  0.06131349  0.47473314  0.91220528    -0.11000
C580        C  0.09032294  0.48270410  0.90170252     0.08300
C581        C  0.12526282  0.46982919  0.97153616     0.09400
S582        S  0.06130220  0.44957605  0.00121057    -0.25300
H583        H  0.03169609  0.45917464  0.95140184     0.19600
S584        S  0.10294521  0.99657674  0.86185998    -0.31000
H585        H  0.13176884  0.98617446  0.91240871     0.10000
C586        C  0.13696440  0.45120962  0.96442899     0.03200
C587        C  0.16071390  0.45339250  0.98178327    -0.13300
C588        C  0.17093229  0.47289088  0.50728354    -0.09000
C589        C  0.16061825  0.49280786  0.51404227     0.06600
C590        C  0.13741890  0.49002093  0.99604109    -0.14100
S591        S  0.12162953  0.42453418  0.93334773    -0.31000
H592        H  0.16967127  0.43907570  0.97644509     0.10900
S593        S  0.17140919  0.01496875  0.54655117    -0.28100
H594        H  0.12696457  0.00245526  0.99979842     0.08100
H595        H  0.13149748  0.00003591  0.86424346     0.26500
H596        H  0.14078304  0.41292423  0.93646508     0.21300
H597        H  0.20168479  0.02603216  0.53975371     0.26600
H598        H  0.07852567  0.43588665  0.00503255     0.15500
C599        C  0.31850533  0.48584297  0.67778692    -0.11800
C600        C  0.31049405  0.47052581  0.70595320     0.14700
C601        C  0.28041663  0.45585321  0.71534643     0.01600
C602        C  0.25917419  0.45731555  0.69688635    -0.16200
C603        C  0.26697240  0.47283825  0.66874388    -0.11000
C604        C  0.29721005  0.48737853  0.65921955     0.08300
C605        C  0.33408774  0.47248392  0.72661383     0.09400
S606        S  0.26790691  0.43567147  0.75117518    -0.25300
H607        H  0.23619848  0.44600641  0.70459204     0.19600
S608        S  0.31056045  0.51000260  0.62497841    -0.31000
H609        H  0.34169980  0.49760496  0.67078686     0.10000
C610        C  0.34370314  0.45154165  0.72538525     0.03200
C611        C  0.36413486  0.45277910  0.74734860    -0.13300
C612        C  0.37498996  0.47443890  0.77078126    -0.09000
C613        C  0.36500938  0.49530358  0.77188596     0.06600
C614        C  0.34521851  0.49440727  0.74953647    -0.14100
S615        S  0.32893729  0.42253949  0.69662324    -0.31000
H616        H  0.37159979  0.43675094  0.74633702     0.10900
S617        S  0.38163749  0.02986869  0.80148655    -0.28100
H618        H  0.34390769  0.01824063  0.75043691     0.08100
H619        H  0.29304206  0.52336243  0.62911386     0.26500
H620        H  0.34285813  0.40714789  0.70767847     0.21300
H621        H  0.37617957  0.00973374  0.82575060     0.26600
H622        H  0.28756264  0.42455524  0.75086030     0.15500
C623        C  0.15517749  0.49096527  0.71180271    -0.11800
C624        C  0.12601096  0.47469076  0.70035021     0.14700
C625        C  0.12102721  0.46002482  0.67175493     0.01600
C626        C  0.14515901  0.46155169  0.65566108    -0.16200
C627        C  0.17427086  0.47686932  0.66768713    -0.11000
C628        C  0.17923216  0.49228937  0.69593231     0.08300
C629        C  0.10150104  0.47317464  0.71927748     0.09400
S630        S  0.08445817  0.43827365  0.65493185    -0.25300
H631        H  0.14093353  0.44970972  0.63403888     0.19600
S632        S  0.21942895  0.02601468  0.71033121    -0.31000
H633        H  0.16204298  0.01022723  0.73210712     0.10000
C634        C  0.09452273  0.45897454  0.74819887     0.03200
C635        C  0.07280703  0.45970572  0.76655182    -0.13300
C636        C  0.05745561  0.47411907  0.75676088    -0.09000
C637        C  0.06391810  0.48765517  0.72730242     0.06600
C638        C  0.08579976  0.48699054  0.70892246    -0.14100
S639        S  0.11301738  0.43951269  0.76173405    -0.31000
H640        H  0.06780830  0.44897920  0.78887603     0.10900
S641        S  0.04638124  0.50738552  0.71242169    -0.28100
H642        H  0.09122215  0.49801940  0.68672191     0.08100
H643        H  0.23295304  0.03633604  0.68140370     0.26500
H644        H  0.09719323  0.42899173  0.78952789     0.21300
H645        H  0.04857920  0.52205207  0.74020463     0.26600
H646        H  0.06830768  0.42991213  0.68262584     0.15500
C647        C  0.39707440  0.37268341  0.96277755    -0.11800
C648        C  0.36789144  0.35408695  0.95216403     0.14700
C649        C  0.35992403  0.35895024  0.92263722     0.01600
C650        C  0.38150984  0.38108410  0.90384122    -0.16200
C651        C  0.41104766  0.39933729  0.91385982    -0.11000
C652        C  0.41881271  0.39506930  0.94392315     0.08300
C653        C  0.34635051  0.32897937  0.97159040     0.09400
S654        S  0.32261343  0.33755436  0.90743137    -0.25300
H655        H  0.37496864  0.38421459  0.88109028     0.19600
S656        S  0.45609859  0.41605932  0.95907676    -0.31000
H657        H  0.40320639  0.36900376  0.98550457     0.10000
C658        C  0.33630383  0.29911942  0.96329368     0.03200
C659        C  0.31305023  0.27589123  0.97997020    -0.13300
C660        C  0.29631724  0.28382588  0.50473811    -0.09000
C661        C  0.31116752  0.31189097  0.01430927     0.06600
C662        C  0.33421564  0.33504742  0.99744907    -0.14100
S663        S  0.35345766  0.29064287  0.93174385    -0.31000
H664        H  0.30510706  0.25292697  0.97353617     0.10900
S665        S  0.29390639  0.32411126  0.54716971    -0.28100
H666        H  0.34195989  0.35801925  0.00378585     0.08100
H667        H  0.46986449  0.41378982  0.93219585     0.26500
H668        H  0.33591204  0.25937274  0.93390190     0.21300
H669        H  0.26386841  0.30242520  0.54208502     0.26600
H670        H  0.30782595  0.33219115  0.93583702     0.15500
C671        C  0.15346710  0.15003476  0.99611630    -0.11800
C672        C  0.16030731  0.13985770  0.96919005     0.14700
C673        C  0.19043569  0.15241194  0.96021470     0.01600
C674        C  0.21288869  0.17476990  0.97826109    -0.16200
C675        C  0.20609123  0.18547394  0.00488011    -0.11000
C676        C  0.17460392  0.16859986  0.51580966     0.08300
C677        C  0.13555174  0.11876190  0.94915973     0.09400
S678        S  0.20180217  0.14142752  0.92575014    -0.25300
H679        H  0.23592306  0.18422781  0.97118276     0.19600
S680        S  0.16183539  0.17648074  0.55119494    -0.31000
H681        H  0.13034380  0.14092052  0.00269459     0.10000
C682        C  0.12784583  0.08871383  0.94575466     0.03200
C683        C  0.10643671  0.07086865  0.92374886    -0.13300
C684        C  0.09283515  0.08252224  0.90460809    -0.09000
C685        C  0.10031968  0.11265077  0.90883399     0.06600
C686        C  0.12101653  0.13005188  0.93136929    -0.14100
S687        S  0.14548005  0.07322054  0.96913436    -0.31000
H688        H  0.10060984  0.04778545  0.92113688     0.10900
S689        S  0.08652188  0.13132888  0.88478683    -0.28100
H690        H  0.12716190  0.15326251  0.93388872     0.08100
H691        H  0.17773330  0.20763422  0.54698299     0.26500
H692        H  0.13189311  0.04492912  0.95509386     0.21300
H693        H  0.09312993  0.12174845  0.85714341     0.26600
H694        H  0.17660048  0.13470064  0.90800740     0.15500
C695        C  0.39647278  0.37637481  0.70636440    -0.11800
C696        C  0.36639967  0.36060945  0.71510143     0.14700
C697        C  0.35786894  0.36677196  0.74368628     0.01600
C698        C  0.37965390  0.38693884  0.76376005    -0.16200
C699        C  0.40995494  0.40222058  0.75559397    -0.11000
C700        C  0.41835409  0.39714542  0.72619086     0.08300
C701        C  0.34504721  0.33486396  0.69639835     0.09400
S702        S  0.31949926  0.34939543  0.75588760    -0.25300
H703        H  0.37276756  0.39094200  0.78592058     0.19600
S704        S  0.45649296  0.41444951  0.71326151    -0.31000
H705        H  0.40309925  0.37138613  0.68455297     0.10000
C706        C  0.33502395  0.33826457  0.66740981     0.03200
C707        C  0.31344736  0.31284264  0.65173485    -0.13300
C708        C  0.30191051  0.28412614  0.66441755    -0.09000
C709        C  0.31336494  0.28085549  0.69271507     0.06600
C710        C  0.33440897  0.30619939  0.70849576    -0.14100
S711        S  0.34876880  0.37489077  0.65096925    -0.31000
H712        H  0.30486415  0.31540595  0.62996079     0.10900
S713        S  0.30299494  0.24509148  0.70946470    -0.28100
H714        H  0.34277030  0.30359253  0.73043201     0.08100
H715        H  0.46838989  0.41363216  0.74192005     0.26500
H716        H  0.33097871  0.36551664  0.62434084     0.21300
H717        H  0.30031310  0.23080361  0.68116271     0.26600
H718        H  0.30746412  0.34563504  0.72614868     0.15500
C719        C  0.17146857  0.17557692  0.71234336    -0.11800
C720        C  0.15979760  0.14553599  0.70456044     0.14700
C721        C  0.17035390  0.13803638  0.67809142     0.01600
C722        C  0.19305675  0.16083008  0.66053403    -0.16200
C723        C  0.20521839  0.19097959  0.66866254    -0.11000
C724        C  0.19373409  0.19834147  0.69457676     0.08300
C725        C  0.13691031  0.12282627  0.72497719     0.09400
S726        S  0.15635817  0.09997817  0.66595023    -0.25300
H727        H  0.20161778  0.15496168  0.64065803     0.19600
S728        S  0.20563558  0.23622669  0.70566852    -0.31000
H729        H  0.16301376  0.18131854  0.73241813     0.10000
C730        C  0.14413419  0.10774139  0.74710080     0.03200
C731        C  0.12212737  0.08814923  0.76763329    -0.13300
C732        C  0.09281342  0.08303965  0.76642081    -0.09000
C733        C  0.08554933  0.09731681  0.74303639     0.06600
C734        C  0.10775044  0.11744122  0.72310422    -0.14100
S735        S  0.18166478  0.11438623  0.75003079    -0.31000
H736        H  0.12810603  0.07743676  0.78533297     0.10900
S737        S  0.04848745  0.09006232  0.73601772    -0.28100
H738        H  0.10220413  0.12878254  0.70565636     0.08100
H739        H  0.20915554  0.24712112  0.67538384     0.26500
H740        H  0.17545776  0.09187792  0.77178371     0.21300
H741        H  0.03476711  0.05948447  0.74273399     0.26600
H742        H  0.12779979  0.08788563  0.67893473     0.15500
C743        C  0.23265208  0.71027264  0.15007341     0.79800
N744        N  0.23259793  0.70917478  0.11879190    -0.78500
C745        C  0.25615603  0.73035615  0.10247867     0.82200
N746        N  0.27968844  0.75279493  0.11748799    -0.78500
C747        C  0.28028534  0.75376027  0.14864015     0.82300
N748        N  0.25676294  0.73243332  0.16472618    -0.80200
C749        C  0.23267458  0.70786625  0.02175882     0.79800
N750        N  0.23332177  0.70732522  0.05301356    -0.78500
C751        C  0.25597718  0.73003180  0.06875634     0.82200
N752        N  0.27826398  0.75322527  0.05316001    -0.78500
C753        C  0.27793813  0.75415552  0.02201852     0.82300
N754        N  0.25520586  0.73130924  0.00646926    -0.80200
C755        C  0.24362210  0.97416379  0.14898492     0.79800
N756        N  0.24340971  0.97376305  0.11765674    -0.78500
C757        C  0.22137290  0.97480052  0.10179545     0.82200
N758        N  0.19933816  0.97598127  0.11737103    -0.78500
C759        C  0.19930593  0.97653395  0.14856623     0.85100
N760        N  0.22133356  0.97534818  0.16419064    -0.80200
C761        C  0.24435488  0.97741222  0.02041617     0.79800
N762        N  0.22047228  0.97545592  0.00557663    -0.78500
C763        C  0.19738238  0.97406297  0.02149320     0.82200
N764        N  0.19782373  0.97380389  0.05270827    -0.78500
C765        C  0.22126647  0.97504246  0.06794284     0.82300
N766        N  0.24450802  0.97682976  0.05172650    -0.80200
C767        C  0.49092085  0.73934363  0.14772727     0.79800
N768        N  0.49450213  0.74132314  0.11666909    -0.78500
C769        C  0.49384859  0.71861239  0.10053761     0.82200
N770        N  0.48973889  0.69384623  0.11558155    -0.78500
C771        C  0.48651528  0.69164604  0.14660945     0.82300
N772        N  0.48698973  0.71444235  0.16252093    -0.80200
C773        C  0.49851743  0.74298590  0.01933342     0.79800
N774        N  0.49685463  0.74254864  0.05062617    -0.78500
C775        C  0.49688875  0.72018708  0.06691396     0.82200
N776        N  0.49858304  0.69824958  0.05188156    -0.78500
C777        C  0.49959237  0.69784520  0.02078314     0.82300
N778        N  0.49954315  0.72033618  0.00463122    -0.80200
O779        O  0.00818381  0.90918829  0.36901280    -0.88600
C780        C  0.07103652  0.56295901  0.29050182     1.11400
O781        O  0.48457060  0.94552168  0.33540109    -1.36400
O782        O  0.07503970  0.54200086  0.37018254    -0.90100
O783        O  0.46146406  0.88542155  0.36917932    -0.90800
O784        O  0.45350580  0.94397379  0.40067207    -0.79600
O785        O  0.04255312  0.97509435  0.36345269    -1.01700
C786        C  0.48816982  0.53316351  0.39158236     1.21500
O787        O  0.45208246  0.97472175  0.33663542    -1.36600
Mn788      Mn  0.48357709  0.97673491  0.30267449     1.82100
O789        O  0.48709557  0.50957878  0.40041790    -0.78700
O790        O  0.05126928  0.56763890  0.36957344    -0.88100
C791        C  0.48162401  0.53078266  0.27963210     1.12600
C792        C  0.07115174  0.56278206  0.38030486     1.07300
O793        O  0.45323743  0.94596376  0.27113665    -0.79600
O794        O  0.01561788  0.50791419  0.33554312    -1.33300
O795        O  0.42612084  0.91646006  0.30638322    -0.98800
C796        C  0.39525489  0.97067326  0.38216115     1.06000
Mn797      Mn  0.01835580  0.55007204  0.33548119     1.48600
O798        O  0.39111764  0.94646011  0.37042549    -0.88000
Mn799      Mn  0.44569861  0.90253273  0.33514913     1.49600
O800        O  0.00761493  0.90915274  0.30000075    -0.91900
C801        C  0.03921392  0.97492007  0.39113587     1.19200
C802        C  0.48603008  0.89054393  0.29017142     1.11300
Mn803      Mn  0.48400409  0.97583428  0.36960569     1.81000
O804        O  0.48321967  0.53498649  0.30716201    -0.97000
Mn805      Mn  0.02335475  0.94195263  0.33449691     1.49300
C806        C  0.48649464  0.89039656  0.37927614     1.07800
Mn807      Mn  0.45114865  0.51693753  0.33765719     1.49900
C808        C  0.39510915  0.97294318  0.29306760     1.10700
O809        O  0.42644090  0.91605743  0.36447374    -1.02800
O810        O  0.05072608  0.56761452  0.30051613    -0.92500
C811        C  0.43097152  0.92023965  0.39207758     1.22000
O812        O  0.48650619  0.53625942  0.36410779    -1.03200
O813        O  0.07530372  0.54273766  0.30159677    -0.90600
O814        O  0.41676085  0.50224430  0.30531189    -0.90200
O815        O  0.46119014  0.88566951  0.30071693    -0.90300
Mn816      Mn  0.05724869  0.50976520  0.33539562     1.47900
O817        O  0.48251696  0.50829744  0.27049748    -0.78700
C818        C  0.43081550  0.92184878  0.27893570     1.15000
O819        O  0.01657981  0.97534844  0.40051145    -0.77500
O820        O  0.01568753  0.97767914  0.27047022    -0.77100
Mn821      Mn  0.41047302  0.93378650  0.33586963     1.51100
O822        O  0.41984339  0.50161126  0.37392627    -0.89400
O823        O  0.04271001  0.97581778  0.30577259    -0.97000
O824        O  0.39167749  0.94800462  0.30191331    -0.92000
C825        C  0.03828243  0.97648025  0.27830774     1.12800
C826        C  0.48701616  0.60002073  0.42598201    -0.11800
C827        C  0.50541264  0.60630908  0.45166030     0.14700
C828        C  0.51783229  0.58815908  0.45800867     0.01600
C829        C  0.51091400  0.56365762  0.43890518    -0.16200
C830        C  0.49266510  0.55750667  0.41285959    -0.11000
C831        C  0.97684058  0.57354914  0.40607940     0.08300
C832        C  0.50912047  0.63088689  0.47199381     0.09400
S833        S  0.54333142  0.59574051  0.48938200    -0.25300
H834        H  0.52077992  0.55002062  0.44372635     0.19600
S835        S  0.95343104  0.56685071  0.37280850    -0.31000
H836        H  0.97159797  0.61023725  0.42056891     0.10000
C837        C  0.01614570  0.65731314  0.46204261     0.03200
C838        C  0.02105918  0.68144879  0.98224981    -0.13300
C839        C  0.50108198  0.67332961  0.00459229    -0.09000
C840        C  0.48986773  0.64531482  0.51581316     0.06600
C841        C  0.49241445  0.62361048  0.49916800    -0.14100
S842        S  0.03809140  0.66825825  0.42716254    -0.31000
H843        H  0.03490889  0.70487747  0.97661979     0.10900
S844        S  0.46451361  0.63225342  0.54802711    -0.28100
H845        H  0.47969052  0.60045621  0.50637809     0.08100
H846        H  0.94129611  0.58452798  0.38183002     0.26500
H847        H  0.06257924  0.70245721  0.93779879     0.21300
H848        H  0.45086829  0.64884630  0.54006648     0.26600
H849        H  0.55102305  0.62562912  0.98924222     0.15500
C850        C  0.46745499  0.82311069  0.43067510    -0.11800
C851        C  0.49357766  0.83391789  0.44809385     0.14700
C852        C  0.01366322  0.86016532  0.44232489     0.01600
C853        C  0.01111056  0.87867203  0.42050939    -0.16200
C854        C  0.48736653  0.87088135  0.40405087    -0.11000
C855        C  0.46376704  0.84124481  0.40939135     0.08300
C856        C  0.49693318  0.81268463  0.46838931     0.09400
S857        S  0.04981654  0.87295473  0.45915013    -0.25300
H858        H  0.03097275  0.89946229  0.41444024     0.19600
S859        S  0.42891242  0.82438956  0.38893033    -0.31000
H860        H  0.44980935  0.80010136  0.43346892     0.10000
C861        C  0.47771631  0.79859795  0.49357055     0.03200
C862        C  0.48219349  0.78055691  0.01412048    -0.13300
C863        C  0.50153020  0.76888820  0.50291717    -0.09000
C864        C  0.52141876  0.78374148  0.47830496     0.06600
C865        C  0.51879873  0.80533863  0.46127455    -0.14100
S866        S  0.95327538  0.81515897  0.00964171    -0.31000
H867        H  0.47141261  0.77308282  0.03628508     0.10900
S868        S  0.55085010  0.77615232  0.46903643    -0.28100
H869        H  0.53353315  0.81630177  0.44197789     0.08100
H870        H  0.42072332  0.84419484  0.40157446     0.26500
H871        H  0.94429486  0.79879255  0.03727303     0.21300
H872        H  0.56494373  0.79848229  0.44649740     0.26600
H873        H  0.03916814  0.85833349  0.48752663     0.15500
C874        C  0.99335671  0.62516980  0.17338141    -0.11800
C875        C  0.47147256  0.61306956  0.19652373     0.14700
C876        C  0.45623415  0.62826507  0.20443842     0.01600
C877        C  0.46163341  0.65368622  0.18784764    -0.16200
C878        C  0.48167047  0.66434983  0.16298636    -0.11000
C879        C  0.99704169  0.65020841  0.15724103     0.08300
C880        C  0.47204650  0.59069455  0.21753926     0.09400
S881        S  0.43000257  0.61659291  0.23587428    -0.25300
H882        H  0.44993848  0.66519610  0.19439381     0.19600
S883        S  0.02876419  0.66864743  0.13189897    -0.31000
H884        H  0.00957486  0.61809506  0.17038275     0.10000
C885        C  0.46241264  0.56103099  0.20868198     0.03200
C886        C  0.46582268  0.54188377  0.22916749    -0.13300
C887        C  0.47839139  0.55169230  0.25854341    -0.09000
C888        C  0.98407033  0.57996290  0.26791738     0.06600
C889        C  0.97989671  0.59788091  0.24676453    -0.14100
S890        S  0.44512707  0.54738581  0.17167751    -0.31000
H891        H  0.45852423  0.51914703  0.22234979     0.10900
S892        S  0.99692201  0.59490502  0.30608775    -0.28100
H893        H  0.98389596  0.61965314  0.25366178     0.08100
H894        H  0.03556403  0.69777252  0.13945477     0.26500
H895        H  0.43650274  0.51728798  0.17668534     0.21300
H896        H  0.99410326  0.62037752  0.30338628     0.26600
H897        H  0.42156565  0.58623439  0.23481539     0.15500
C898        C  0.97094241  0.79836483  0.17527710    -0.11800
C899        C  0.49302397  0.80913405  0.20354134     0.14700
C900        C  0.50502087  0.79174547  0.21432949     0.01600
C901        C  0.50454451  0.76975966  0.19535968    -0.16200
C902        C  0.49203497  0.76424719  0.16574031    -0.11000
C903        C  0.97033421  0.77628398  0.15599608     0.08300
C904        C  0.49119213  0.83134530  0.22342673     0.09400
S905        S  0.52097080  0.79620891  0.25218169    -0.25300
H906        H  0.51380242  0.75657094  0.20402500     0.19600
S907        S  0.95474784  0.77154409  0.11782217    -0.31000
H908        H  0.96279419  0.81260819  0.16695542     0.10000
C909        C  0.00812008  0.85288137  0.23111302     0.03200
C910        C  0.00737085  0.87323010  0.25189866    -0.13300
C911        C  0.48641325  0.87040346  0.26568502    -0.09000
C912        C  0.46104893  0.84234823  0.25803159     0.06600
C913        C  0.46386118  0.82339063  0.23719064    -0.14100
S914        S  0.04270098  0.86125176  0.21282470    -0.31000
H915        H  0.02783789  0.89380723  0.25682918     0.10900
S916        S  0.42469361  0.82808261  0.27496054    -0.28100
H917        H  0.44458882  0.80174914  0.23215729     0.08100
H918        H  0.95051509  0.79625707  0.11835979     0.26500
H919        H  0.06087485  0.88831057  0.22818630     0.21300
H920        H  0.42147177  0.85152946  0.26330067     0.26600
H921        H  0.50208324  0.80424128  0.26713106     0.15500
C922        C  0.29592505  0.98623345  0.45638267    -0.11800
C923        C  0.30890413  0.96980294  0.46660906     0.14700
C924        C  0.30199043  0.95702871  0.49633633     0.01600
C925        C  0.28358364  0.96383915  0.01403755    -0.16200
C926        C  0.26796252  0.97607236  0.50422599    -0.11000
C927        C  0.27606127  0.98996046  0.47493277     0.08300
C928        C  0.33080229  0.96798899  0.44623940     0.09400
S929        S  0.32121127  0.94101870  0.01300250    -0.25300
H930        H  0.27780120  0.95359991  0.03663019     0.19600
S931        S  0.26552868  0.52033336  0.46417311    -0.31000
H932        H  0.30669126  0.50671581  0.43689722     0.10000
C933        C  0.32169665  0.94914821  0.42030952     0.03200
C934        C  0.34329650  0.94967738  0.40048777    -0.13300
C935        C  0.37389982  0.96874287  0.40598649    -0.09000
C936        C  0.38281842  0.98649145  0.43287025     0.06600
C937        C  0.36125995  0.98625806  0.45238371    -0.14100
S938        S  0.28257274  0.92454766  0.41243227    -0.31000
H939        H  0.33632409  0.93586065  0.38006500     0.10900
S940        S  0.42390755  0.51387209  0.44447822    -0.28100
H941        H  0.37120948  0.50643788  0.47248647     0.08100
H942        H  0.26323362  0.52930283  0.49410564     0.26500
H943        H  0.28629579  0.91116579  0.38597668     0.21300
H944        H  0.43210816  0.49396442  0.43222095     0.26600
H945        H  0.32141720  0.92494746  0.48338352     0.15500
C946        C  0.11002524  0.97988257  0.42307898    -0.11800
C947        C  0.10083060  0.96774890  0.45252771     0.14700
C948        C  0.07152261  0.95880616  0.46218937     0.01600
C949        C  0.05223926  0.96228264  0.44221967    -0.16200
C950        C  0.06117396  0.97372466  0.41229228    -0.11000
C951        C  0.09070312  0.98267182  0.40272814     0.08300
C952        C  0.12323246  0.96647723  0.47275962     0.09400
S953        S  0.05714983  0.94216378  0.49930861    -0.25300
H954        H  0.02972246  0.95503361  0.44979317     0.19600
S955        S  0.10412557  0.49991548  0.36527480    -0.31000
H956        H  0.13257835  0.49073952  0.41703442     0.10000
C957        C  0.13659527  0.94956837  0.46460583     0.03200
C958        C  0.16017058  0.95179523  0.48233979    -0.13300
C959        C  0.17189099  0.97230263  0.00460292    -0.09000
C960        C  0.15966090  0.99046787  0.01188783     0.06600
C961        C  0.13369064  0.98506567  0.49867903    -0.14100
S962        S  0.12378094  0.92516569  0.43152179    -0.31000
H963        H  0.17029022  0.93870584  0.47613362     0.10900
S964        S  0.17696945  0.52108474  0.04223226    -0.28100
H965        H  0.12922871  0.50669647  0.50215211     0.08100
H966        H  0.13388534  0.50735225  0.36973493     0.26500
H967        H  0.14552114  0.91665737  0.43263649     0.21300
H968        H  0.20679573  0.52957093  0.03606753     0.26600
H969        H  0.07540472  0.92961306  0.50307092     0.15500
C970        C  0.31770838  0.98166157  0.17485975    -0.11800
C971        C  0.30982601  0.96798936  0.20388671     0.14700
C972        C  0.28022656  0.95601474  0.21434329     0.01600
C973        C  0.25940841  0.95824836  0.19583609    -0.16200
C974        C  0.26716579  0.97235134  0.16689954    -0.11000
C975        C  0.29696473  0.98438680  0.15650149     0.08300
C976        C  0.33355915  0.97007729  0.22448435     0.09400
S977        S  0.26771570  0.93876471  0.25166101    -0.25300
H978        H  0.23680993  0.94887229  0.20431108     0.19600
S979        S  0.31079024  0.00569933  0.12150241    -0.31000
H980        H  0.34060250  0.99160325  0.16711870     0.10000
C981        C  0.34205985  0.94823349  0.22487300     0.03200
C982        C  0.36257297  0.94994649  0.24705971    -0.13300
C983        C  0.37461761  0.97295436  0.26913173    -0.09000
C984        C  0.36601709  0.99491376  0.26829610     0.06600
C985        C  0.34612977  0.99345926  0.24577461    -0.14100
S986        S  0.32577395  0.91754415  0.19802974    -0.31000
H987        H  0.36902909  0.93311627  0.24740686     0.10900
S988        S  0.37010108  0.51954933  0.30903437    -0.28100
H989        H  0.33407305  0.51092424  0.25692680     0.08100
H990        H  0.29584239  0.02169214  0.12590919     0.26500
H991        H  0.34031966  0.90278164  0.20918901     0.21300
H992        H  0.36853700  0.49782655  0.32959803     0.26600
H993        H  0.28923312  0.93039879  0.25616583     0.15500
C994        C  0.15656299  0.99418608  0.20800127    -0.11800
C995        C  0.12706914  0.97573706  0.19818981     0.14700
C996        C  0.12156556  0.95875763  0.17108110     0.01600
C997        C  0.14559190  0.96023457  0.15480761    -0.16200
C998        C  0.17509175  0.97785245  0.16526933    -0.11000
C999        C  0.18053711  0.99563415  0.19181122     0.08300
C1000       C  0.10278419  0.97426878  0.21742464     0.09400
S1001       S  0.08453074  0.93428387  0.15643731    -0.25300
H1002       H  0.14109520  0.94665899  0.13437419     0.19600
S1003       S  0.22019702  0.53189042  0.20554235    -0.31000
H1004       H  0.16303136  0.51542886  0.22894579     0.10000
C1005       C  0.09566313  0.95950220  0.24600317     0.03200
C1006       C  0.07430164  0.96038906  0.26487821    -0.13300
C1007       C  0.05938361  0.97547939  0.25583747    -0.09000
C1008       C  0.06604806  0.98963462  0.22664018     0.06600
C1009       C  0.08753891  0.98874411  0.20776973    -0.14100
S1010       S  0.11383705  0.93945522  0.25855607    -0.31000
H1011       H  0.06933796  0.94933715  0.28703113     0.10900
S1012       S  0.04932885  0.01045959  0.21263359    -0.28100
H1013       H  0.09307050  0.00016079  0.18577683     0.08100
H1014       H  0.23315824  0.54026749  0.17612446     0.26500
H1015       H  0.09433071  0.92422482  0.28310661     0.21300
H1016       H  0.05058349  0.02375382  0.24104140     0.26600
H1017       H  0.06954495  0.92785631  0.18478777     0.15500
C1018       C  0.39614643  0.86950889  0.46198842    -0.11800
C1019       C  0.36649977  0.85233072  0.45217660     0.14700
C1020       C  0.35821286  0.85814627  0.42326737     0.01600
C1021       C  0.37979865  0.88040878  0.40453907    -0.16200
C1022       C  0.40967478  0.89758679  0.41397039    -0.11000
C1023       C  0.41790864  0.89184470  0.44315066     0.08300
C1024       C  0.34483171  0.82763807  0.47183259     0.09400
S1025       S  0.32063901  0.83760121  0.40855388    -0.25300
H1026       H  0.37304500  0.88446847  0.38231795     0.19600
S1027       S  0.45569353  0.91076716  0.45722851    -0.31000
H1028       H  0.40253613  0.86481319  0.48409944     0.10000
C1029       C  0.33635576  0.79777996  0.46542986     0.03200
C1030       C  0.31333705  0.77472619  0.48252716    -0.13300
C1031       C  0.30196920  0.77975857  0.00496258    -0.09000
C1032       C  0.30849161  0.81113665  0.51340468     0.06600
C1033       C  0.33131243  0.83407221  0.49615904    -0.14100
S1034       S  0.35502573  0.78914677  0.43561533    -0.31000
H1035       H  0.30644812  0.75169980  0.47746456     0.10900
S1036       S  0.30494958  0.82003851  0.05104612    -0.28100
H1037       H  0.33786114  0.85707521  0.50098468     0.08100
H1038       H  0.46889336  0.91187239  0.42875660     0.26500
H1039       H  0.34165062  0.75848423  0.44221976     0.21300
H1040       H  0.27416588  0.80131224  0.04619891     0.26600
H1041       H  0.30605855  0.83103927  0.43714226     0.15500
C1042       C  0.15215178  0.64781937  0.49855043    -0.11800
C1043       C  0.15854090  0.64154100  0.46910862     0.14700
C1044       C  0.18812873  0.65744839  0.45810557     0.01600
C1045       C  0.21061921  0.67883018  0.47684664    -0.16200
C1046       C  0.20438714  0.68570219  0.50621790    -0.11000
C1047       C  0.17854790  0.66559500  0.01594914     0.08300
C1048       C  0.13381500  0.61955466  0.44960810     0.09400
S1049       S  0.19862419  0.65198213  0.42013574    -0.25300
H1050       H  0.23323449  0.69061456  0.46806070     0.19600
S1051       S  0.16707132  0.67172463  0.05303124    -0.31000
H1052       H  0.12934857  0.63599518  0.50682397     0.10000
C1053       C  0.13028785  0.59143934  0.44283601     0.03200
C1054       C  0.10903166  0.57309510  0.42098812    -0.13300
C1055       C  0.09123421  0.58229436  0.40534437    -0.09000
C1056       C  0.09414686  0.61019799  0.41347208     0.06600
C1057       C  0.11500111  0.62811991  0.43570604    -0.14100
S1058       S  0.15311508  0.57908870  0.46178541    -0.31000
H1059       H  0.10673428  0.55165653  0.41570295     0.10900
S1060       S  0.07366149  0.62554458  0.39533190    -0.28100
H1061       H  0.11772132  0.64976414  0.44105051     0.08100
H1062       H  0.18117892  0.70289057  0.04924857     0.26500
H1063       H  0.14042842  0.55091264  0.44762012     0.21300
H1064       H  0.08317378  0.62358891  0.36553981     0.26600
H1065       H  0.17204733  0.64579957  0.40541411     0.15500
C1066       C  0.39755815  0.87316035  0.20773842    -0.11800
C1067       C  0.36753962  0.85620574  0.21649816     0.14700
C1068       C  0.35830893  0.86240758  0.24463919     0.01600
C1069       C  0.37945741  0.88397210  0.26425503    -0.16200
C1070       C  0.40975695  0.90045559  0.25610189    -0.11000
C1071       C  0.41876149  0.89524850  0.22710584     0.08300
C1072       C  0.34688886  0.83022161  0.19757904     0.09400
S1073       S  0.31987052  0.84343849  0.25685876    -0.25300
H1074       H  0.37208640  0.88804019  0.28609133     0.19600
S1075       S  0.45695593  0.91418532  0.21415641    -0.31000
H1076       H  0.40471187  0.86828439  0.18619447     0.10000
C1077       C  0.33683744  0.83359008  0.16860296     0.03200
C1078       C  0.31588087  0.80813156  0.15254358    -0.13300
C1079       C  0.30499445  0.77935311  0.16477429    -0.09000
C1080       C  0.31652107  0.77608712  0.19301656     0.06600
C1081       C  0.33695304  0.80150304  0.20926240    -0.14100
S1082       S  0.34950627  0.87026089  0.15277325    -0.31000
H1083       H  0.30711033  0.81070906  0.13090784     0.10900
S1084       S  0.30691836  0.74025653  0.20905107    -0.28100
H1085       H  0.34534226  0.79892390  0.23118192     0.08100
H1086       H  0.46927732  0.91445062  0.24290749     0.26500
H1087       H  0.33527080  0.86066813  0.12409494     0.21300
H1088       H  0.30378554  0.72624098  0.18048012     0.26600
H1089       H  0.30760650  0.83826715  0.22712326     0.15500
C1090       C  0.17611221  0.67083295  0.21432342    -0.11800
C1091       C  0.15869388  0.64221814  0.20196486     0.14700
C1092       C  0.16449606  0.63639007  0.17183110     0.01600
C1093       C  0.18862109  0.65893875  0.15541913    -0.16200
C1094       C  0.20660672  0.68762464  0.16800269    -0.11000
C1095       C  0.19940750  0.69367433  0.19760972     0.08300
C1096       C  0.13463025  0.61944622  0.22148333     0.09400
S1097       S  0.14205561  0.60083661  0.15309989    -0.25300
H1098       H  0.19339055  0.65393532  0.13264719     0.19600
S1099       S  0.21765538  0.73018684  0.21505285    -0.31000
H1100       H  0.17115850  0.67553478  0.23717458     0.10000
C1101       C  0.13728833  0.59668874  0.23597540     0.03200
C1102       C  0.11569308  0.57815910  0.25743802    -0.13300
C1103       C  0.09145231  0.58199770  0.26526842    -0.09000
C1104       C  0.08844104  0.60437167  0.24954609     0.06600
C1105       C  0.11008805  0.62271239  0.22798804    -0.14100
S1106       S  0.16908561  0.59231701  0.22854825    -0.31000
H1107       H  0.11840423  0.56114925  0.26886192     0.10900
S1108       S  0.05772025  0.61054676  0.25629570    -0.28100
H1109       H  0.10838343  0.64029623  0.21644875     0.08100
H1110       H  0.21821143  0.74508883  0.18776540     0.26500
H1111       H  0.15953106  0.56628447  0.24618933     0.21300
H1112       H  0.06722297  0.63564395  0.23718790     0.26600
H1113       H  0.11555969  0.59245388  0.16929589     0.15500
C1114       C  0.23067483  0.71418933  0.65229994     0.79800
N1115       N  0.23016547  0.71260727  0.62104680    -0.78500
C1116       C  0.25355761  0.73353777  0.60434929     0.82200
N1117       N  0.27749076  0.75593629  0.61901498    -0.78500
C1118       C  0.27845111  0.75724366  0.65018654     0.82300
N1119       N  0.25493383  0.73639642  0.66657247    -0.80200
C1120       C  0.22940716  0.71009684  0.52379044     0.79800
N1121       N  0.23002159  0.71002135  0.55510249    -0.78500
C1122       C  0.25296158  0.73280007  0.57059146     0.82200
N1123       N  0.27535691  0.75562699  0.55470126    -0.78500
C1124       C  0.27506105  0.75588861  0.52354979     0.82300
N1125       N  0.25221781  0.73301858  0.50822176    -0.80200
C1126       C  0.24807590  0.98203081  0.65160431     0.79800
N1127       N  0.24719098  0.97998672  0.62033869    -0.78500
C1128       C  0.22453413  0.97973345  0.60439494     0.82200
N1129       N  0.20266871  0.98133145  0.61987049    -0.78500
C1130       C  0.20330449  0.98344431  0.65100700     0.85100
N1131       N  0.22586774  0.98341438  0.66668630    -0.80200
C1132       C  0.24382368  0.97574875  0.52280580     0.79800
N1133       N  0.21942839  0.97309899  0.50840982    -0.78500
C1134       C  0.19713926  0.97316206  0.52455799     0.82200
N1135       N  0.19903753  0.97519319  0.55568949    -0.78500
C1136       C  0.22306795  0.97736541  0.57058915     0.82300
N1137       N  0.24546330  0.97757399  0.55408053    -0.80200
C1138       C  0.48780648  0.73822903  0.64826056     0.79800
N1139       N  0.49240408  0.74037849  0.61734008    -0.78500
C1140       C  0.49266194  0.71800782  0.60142401     0.82200
N1141       N  0.48865790  0.69337539  0.61661112    -0.78500
C1142       C  0.48457834  0.69097324  0.64754185     0.82300
N1143       N  0.48394461  0.71336939  0.66316808    -0.80200
C1144       C  0.50190962  0.74458414  0.52065605     0.79800
N1145       N  0.49805083  0.74300601  0.55170954    -0.78500
C1146       C  0.49724234  0.72020520  0.56793753     0.82200
N1147       N  0.49996110  0.69877845  0.55296397    -0.78500
C1148       C  0.50316310  0.69961770  0.52194686     0.82300
N1149       N  0.50426925  0.72271686  0.50591162    -0.80200
O1150       O  0.00809678  0.90954408  0.86731150    -0.88600
C1151       C  0.07120313  0.56193748  0.79081114     1.11400
O1152       O  0.48500442  0.94627726  0.83525717    -1.36400
O1153       O  0.07565338  0.54087726  0.86971289    -0.90100
O1154       O  0.45987435  0.88587066  0.86923348    -0.90800
O1155       O  0.45474825  0.94572298  0.90079377    -0.79600
O1156       O  0.04157527  0.97577617  0.86260179    -1.01700
C1157       C  0.48625033  0.53085570  0.89217300     1.21500
O1158       O  0.45441384  0.97743595  0.83721452    -1.36600
Mn1159     Mn  0.48511620  0.97832953  0.80293545     1.82100
O1160       O  0.48658720  0.50791694  0.90072810    -0.78700
O1161       O  0.05265936  0.56736857  0.86955466    -0.88100
C1162       C  0.48121847  0.53008287  0.78025620     1.12600
C1163       C  0.07243524  0.56206829  0.87978855     1.07300
O1164       O  0.45424101  0.94832081  0.77127606    -0.79600
O1165       O  0.01558868  0.50731693  0.83631419    -1.33300
O1166       O  0.42694398  0.91934386  0.80665015    -0.98800
C1167       C  0.39867588  0.97476026  0.88336266     1.06000
Mn1168     Mn  0.01898048  0.54976822  0.83614509     1.48600
O1169       O  0.39368032  0.95064440  0.87070863    -0.88000
Mn1170     Mn  0.44522811  0.90404747  0.83519577     1.49600
O1171       O  0.00806682  0.91057752  0.79830932    -0.91900
C1172       C  0.03845098  0.97533108  0.89025054     1.19200
C1173       C  0.48385376  0.89043118  0.78962876     1.11300
Mn1174     Mn  0.48575921  0.97700253  0.86974023     1.81000
O1175       O  0.48227838  0.53372248  0.80785352    -0.97000
Mn1176     Mn  0.02307750  0.94287595  0.83337268     1.49300
C1177       C  0.48463885  0.89013674  0.87935322     1.07800
Mn1178     Mn  0.44988044  0.51434377  0.83794825     1.49900
C1179       C  0.39855776  0.97846229  0.79470202     1.10700
O1180       O  0.42701692  0.91852920  0.86459983    -1.02800
O1181       O  0.05101328  0.56696152  0.80059320    -0.92500
C1182       C  0.43173472  0.92247471  0.89217950     1.22000
O1183       O  0.48476147  0.53417815  0.86474563    -1.03200
O1184       O  0.07499500  0.54129566  0.80151004    -0.90600
O1185       O  0.41579556  0.49900303  0.80517469    -0.90200
O1186       O  0.45944654  0.88636314  0.80053425    -0.90300
Mn1187     Mn  0.05685942  0.50848317  0.83535029     1.47900
O1188       O  0.48283057  0.50807682  0.77076785    -0.78700
C1189       C  0.43162047  0.92447240  0.77920836     1.15000
O1190       O  0.01581979  0.97555548  0.89992081    -0.77500
O1191       O  0.01547416  0.97910494  0.76974925    -0.77100
Mn1192     Mn  0.41220229  0.93739509  0.83614596     1.51100
O1193       O  0.41831474  0.49773949  0.87408248    -0.89400
O1194       O  0.04200004  0.97711793  0.80536448    -0.97000
O1195       O  0.39462855  0.95305472  0.80242920    -0.92000
C1196       C  0.03801038  0.97792965  0.77788577     1.12800
C1197       C  0.48106642  0.59525814  0.92693470    -0.11800
C1198       C  0.50040706  0.60294035  0.95199202     0.14700
C1199       C  0.51395525  0.58581458  0.95841023     0.01600
C1200       C  0.50772836  0.56135944  0.93957979    -0.16200
C1201       C  0.48919088  0.55437690  0.91367374    -0.11000
C1202       C  0.98312056  0.57744106  0.90591937     0.08300
C1203       C  0.50443602  0.62826855  0.97124284     0.09400
S1204       S  0.54019852  0.59472637  0.98934177    -0.25300
H1205       H  0.51857989  0.54862399  0.94431004     0.19600
S1206       S  0.96107086  0.57231954  0.87178197    -0.31000
H1207       H  0.98097770  0.61621716  0.91938642     0.10000
C1208       C  0.02468929  0.66010141  0.96604235     0.03200
C1209       C  0.01329268  0.67861354  0.47914491    -0.13300
C1210       C  0.50518298  0.67547493  0.50564850    -0.09000
C1211       C  0.48971142  0.64430136  0.01735995     0.06600
C1212       C  0.49189358  0.62239733  0.00071525    -0.14100
S1213       S  0.05226224  0.67168727  0.93588291    -0.31000
H1214       H  0.02483098  0.70162247  0.47156654     0.10900
S1215       S  0.47000605  0.63260330  0.05347764    -0.28100
H1216       H  0.48211602  0.60000865  0.01007015     0.08100
H1217       H  0.95122986  0.59221146  0.87966318     0.26500
H1218       H  0.04515476  0.69824404  0.42705266     0.21300
H1219       H  0.45215567  0.64526724  0.04732027     0.26600
H1220       H  0.55503134  0.62679712  0.48979117     0.15500
C1221       C  0.46319464  0.82447618  0.93438419    -0.11800
C1222       C  0.49003281  0.83428185  0.95016494     0.14700
C1223       C  0.01232133  0.86011618  0.94126592     0.01600
C1224       C  0.00997378  0.87858572  0.91924917    -0.16200
C1225       C  0.48490849  0.87095452  0.90493939    -0.11000
C1226       C  0.46020306  0.84238475  0.91218852     0.08300
C1227       C  0.49335060  0.81230897  0.96910636     0.09400
S1228       S  0.04738407  0.87421908  0.96099061    -0.25300
H1229       H  0.02937898  0.90026228  0.91475349     0.19600
S1230       S  0.42499431  0.82608768  0.89245177    -0.31000
H1231       H  0.44469654  0.80214839  0.93861032     0.10000
C1232       C  0.47978837  0.80282632  0.99815210     0.03200
C1233       C  0.48029955  0.77699991  0.51061402    -0.13300
C1234       C  0.49774568  0.76727391  0.00159339    -0.09000
C1235       C  0.51186767  0.77744200  0.97258020     0.06600
C1236       C  0.50942522  0.79973957  0.95680750    -0.14100
S1237       S  0.95373956  0.81585246  0.51266197    -0.31000
H1238       H  0.46522508  0.76583374  0.52962885     0.10900
S1239       S  0.53430676  0.76353599  0.95573543    -0.28100
H1240       H  0.51998267  0.80745951  0.93456904     0.08100
H1241       H  0.41862989  0.84775851  0.90333356     0.26500
H1242       H  0.94528370  0.79985492  0.54052946     0.21300
H1243       H  0.53933833  0.77801968  0.92712859     0.26600
H1244       H  0.03523693  0.85858319  0.98859880     0.15500
C1245       C  0.99163881  0.62507918  0.67788339    -0.11800
C1246       C  0.47218901  0.61354275  0.69785289     0.14700
C1247       C  0.45545383  0.62735754  0.70508280     0.01600
C1248       C  0.46011925  0.65255099  0.68850853    -0.16200
C1249       C  0.48069751  0.66414780  0.66415468    -0.11000
C1250       C  0.99527292  0.65012167  0.66176398     0.08300
C1251       C  0.47270085  0.59093102  0.71857375     0.09400
S1252       S  0.42790812  0.61397061  0.73536409    -0.25300
H1253       H  0.44729116  0.66301724  0.69451895     0.19600
S1254       S  0.02942078  0.67166588  0.64042807    -0.31000
H1255       H  0.00914617  0.61956214  0.67692492     0.10000
C1256       C  0.46513082  0.56206072  0.70864728     0.03200
C1257       C  0.46793500  0.54254588  0.72911855    -0.13300
C1258       C  0.47803968  0.55122264  0.75946355    -0.09000
C1259       C  0.98734776  0.58067301  0.76782000     0.06600
C1260       C  0.98272635  0.59850198  0.74691446    -0.14100
S1261       S  0.45104142  0.54976247  0.67026572    -0.31000
H1262       H  0.46211242  0.52039427  0.72150636     0.10900
S1263       S  0.00828233  0.59800352  0.80250037    -0.28100
H1264       H  0.99111877  0.62184206  0.75198342     0.08100
H1265       H  0.03266792  0.69967825  0.64710354     0.26500
H1266       H  0.44796820  0.52129616  0.67253891     0.21300
H1267       H  0.01426929  0.62717328  0.79658623     0.26600
H1268       H  0.42075925  0.58399013  0.73387516     0.15500
C1269       C  0.97073264  0.79799081  0.67470072    -0.11800
C1270       C  0.48916049  0.80867769  0.70298760     0.14700
C1271       C  0.49480718  0.78723214  0.71625345     0.01600
C1272       C  0.49406098  0.76476458  0.69787650    -0.16200
C1273       C  0.48814932  0.76307780  0.66609399    -0.11000
C1274       C  0.96829810  0.77440012  0.65677061     0.08300
C1275       C  0.48680955  0.83100141  0.72216241     0.09400
S1276       S  0.50266918  0.78701483  0.75667303    -0.25300
H1277       H  0.49847511  0.74856618  0.70866983     0.19600
S1278       S  0.94809071  0.76684474  0.62107834    -0.31000
H1279       H  0.96126272  0.81107781  0.66627969     0.10000
C1280       C  0.00992675  0.85559631  0.72850042     0.03200
C1281       C  0.00869291  0.87588942  0.74907894    -0.13300
C1282       C  0.48307887  0.87023817  0.76476175    -0.09000
C1283       C  0.45871746  0.84073460  0.76070934     0.06600
C1284       C  0.46111423  0.82151662  0.73990753    -0.14100
S1285       S  0.04451381  0.86495102  0.70956964    -0.31000
H1286       H  0.02887399  0.89677945  0.75385313     0.10900
S1287       S  0.42456485  0.82529681  0.78241564    -0.28100
H1288       H  0.44292499  0.79866351  0.73790280     0.08100
H1289       H  0.93319830  0.73559911  0.62438129     0.26500
H1290       H  0.06203703  0.89297279  0.72354927     0.21300
H1291       H  0.41688514  0.84556385  0.76993214     0.26600
H1292       H  0.51635675  0.81799183  0.76121145     0.15500
C1293       C  0.29784116  0.98866241  0.95516977    -0.11800
C1294       C  0.31131671  0.97304570  0.96639982     0.14700
C1295       C  0.30444555  0.96087202  0.99632743     0.01600
C1296       C  0.28174832  0.96039979  0.51484574    -0.16200
C1297       C  0.26915145  0.97853673  0.00243682    -0.11000
C1298       C  0.27735447  0.99205669  0.97296194     0.08300
C1299       C  0.33361126  0.97137197  0.94678985     0.09400
S1300       S  0.31786959  0.93583470  0.51170981    -0.25300
H1301       H  0.27593382  0.94978972  0.53726141     0.19600
S1302       S  0.26574888  0.51673433  0.96011233    -0.31000
H1303       H  0.30532210  0.50023427  0.93453103     0.10000
C1304       C  0.32498558  0.95087833  0.92236597     0.03200
C1305       C  0.34683970  0.95185642  0.90269173    -0.13300
C1306       C  0.37726720  0.97266762  0.90720627    -0.09000
C1307       C  0.38575386  0.99158162  0.93320274     0.06600
C1308       C  0.36387794  0.99124123  0.95220661    -0.14100
S1309       S  0.28616655  0.92358534  0.91628737    -0.31000
H1310       H  0.34009374  0.93690798  0.88314878     0.10900
S1311       S  0.42338926  0.50684652  0.94679834    -0.28100
H1312       H  0.37099118  0.50028454  0.97464805     0.08100
H1313       H  0.26498558  0.52857933  0.98898917     0.26500
H1314       H  0.29062520  0.90802851  0.89233909     0.21300
H1315       H  0.43139685  0.48749476  0.93275294     0.26600
H1316       H  0.32503872  0.92944307  0.98527503     0.15500
C1317       C  0.10945662  0.97954767  0.92011760    -0.11800
C1318       C  0.10115304  0.96873917  0.95010820     0.14700
C1319       C  0.07240650  0.96079584  0.96077458     0.01600
C1320       C  0.05270322  0.96395065  0.94120851    -0.16200
C1321       C  0.06076192  0.97425227  0.91082650    -0.11000
C1322       C  0.08977189  0.98219126  0.90023735     0.08300
C1323       C  0.12398618  0.96798179  0.96989565     0.09400
S1324       S  0.05936200  0.94604823  0.99881685    -0.25300
H1325       H  0.03059848  0.95748981  0.94953804     0.19600
S1326       S  0.10402639  0.49659721  0.86359494    -0.31000
H1327       H  0.13254871  0.48747159  0.91342720     0.10000
C1328       C  0.13614896  0.94982055  0.96255052     0.03200
C1329       C  0.15992681  0.95217154  0.97997324    -0.13300
C1330       C  0.17113421  0.97087092  0.50792248    -0.09000
C1331       C  0.15765328  0.98776609  0.51604189     0.06600
C1332       C  0.13575142  0.98793559  0.99464616    -0.14100
S1333       S  0.12131623  0.92347645  0.93113872    -0.31000
H1334       H  0.16924738  0.93820011  0.97447942     0.10900
S1335       S  0.17848390  0.52244606  0.54185808    -0.28100
H1336       H  0.12894176  0.50482499  0.00106934     0.08100
H1337       H  0.08594182  0.46848360  0.84991833     0.26500
H1338       H  0.14177621  0.91335938  0.93313838     0.21300
H1339       H  0.20758257  0.52830426  0.53604355     0.26600
H1340       H  0.07737109  0.93323711  0.00272576     0.15500
C1341       C  0.32287641  0.99216960  0.67813296    -0.11800
C1342       C  0.31490327  0.97788623  0.70683525     0.14700
C1343       C  0.28510530  0.96477403  0.71693039     0.01600
C1344       C  0.26412691  0.96667979  0.69846058    -0.16200
C1345       C  0.27188679  0.98111590  0.66970705    -0.11000
C1346       C  0.30183922  0.99411875  0.65956916     0.08300
C1347       C  0.33840184  0.97924595  0.72710958     0.09400
S1348       S  0.27251995  0.94599245  0.75352865    -0.25300
H1349       H  0.24133898  0.95646762  0.70661603     0.19600
S1350       S  0.31520719  0.01511608  0.62433982    -0.31000
H1351       H  0.34588915  0.00273401  0.67061428     0.10000
C1352       C  0.34678202  0.95734876  0.72608734     0.03200
C1353       C  0.36680700  0.95784966  0.74807849    -0.13300
C1354       C  0.37853730  0.97977089  0.77122681    -0.09000
C1355       C  0.37021769  0.00194524  0.77177258     0.06600
C1356       C  0.35069141  0.00163997  0.74949274    -0.14100
S1357       S  0.33089383  0.92802987  0.69765817    -0.31000
H1358       H  0.37314308  0.94093307  0.74741303     0.10900
S1359       S  0.37460192  0.52208369  0.80248526    -0.28100
H1360       H  0.33734268  0.51014061  0.75081837     0.08100
H1361       H  0.29874722  0.02969185  0.62772194     0.26500
H1362       H  0.34481728  0.91236963  0.70800406     0.21300
H1363       H  0.37092264  0.50185523  0.82605365     0.26600
H1364       H  0.29291897  0.93587763  0.75561081     0.15500
C1365       C  0.15843108  0.99764541  0.71105918    -0.11800
C1366       C  0.12925584  0.97918735  0.70032235     0.14700
C1367       C  0.12474696  0.96350206  0.67245029     0.01600
C1368       C  0.14938662  0.96622678  0.65639659    -0.16200
C1369       C  0.17857723  0.98387616  0.66766026    -0.11000
C1370       C  0.18303902  0.00033035  0.69506888     0.08300
C1371       C  0.10430536  0.97692190  0.71898794     0.09400
S1372       S  0.08830434  0.93907269  0.65638969    -0.25300
H1373       H  0.14557590  0.95353784  0.63540090     0.19600
S1374       S  0.21566551  0.51493147  0.71265635    -0.31000
H1375       H  0.15921355  0.50276302  0.73344945     0.10000
C1376       C  0.09794262  0.96349837  0.74827809     0.03200
C1377       C  0.07586194  0.96381654  0.76639567    -0.13300
C1378       C  0.05959134  0.97710747  0.75600025    -0.09000
C1379       C  0.06549853  0.98982344  0.72616505     0.06600
C1380       C  0.08767621  0.98950432  0.70801495    -0.14100
S1381       S  0.11766628  0.94552230  0.76251125    -0.31000
H1382       H  0.07129269  0.95363004  0.78898355     0.10900
S1383       S  0.04695066  0.00824716  0.71055792    -0.28100
H1384       H  0.09264765  0.99993051  0.68550597     0.08100
H1385       H  0.23001202  0.52695119  0.68441517     0.26500
H1386       H  0.10309818  0.93649447  0.79111742     0.21300
H1387       H  0.05012259  0.02423194  0.73765142     0.26600
H1388       H  0.07200917  0.93242529  0.68390102     0.15500
C1389       C  0.39733694  0.86964831  0.96050707    -0.11800
C1390       C  0.36767193  0.85262062  0.95066790     0.14700
C1391       C  0.35900351  0.86011797  0.92288056     0.01600
C1392       C  0.38044263  0.88313458  0.90473511    -0.16200
C1393       C  0.41043214  0.89975880  0.91393908    -0.11000
C1394       C  0.41886045  0.89301814  0.94248655     0.08300
C1395       C  0.34630134  0.82702894  0.96964863     0.09400
S1396       S  0.32101082  0.84131970  0.90923000    -0.25300
H1397       H  0.37349994  0.88824847  0.88317257     0.19600
S1398       S  0.45657783  0.91196800  0.95677750    -0.31000
H1399       H  0.40395051  0.86405212  0.98199610     0.10000
C1400       C  0.33364960  0.79737863  0.95917122     0.03200
C1401       C  0.31144132  0.77411095  0.97677157    -0.13300
C1402       C  0.29916618  0.78104349  0.50639340    -0.09000
C1403       C  0.31565173  0.80955223  0.01586931     0.06600
C1404       C  0.33774429  0.83269675  0.99821183    -0.14100
S1405       S  0.34617402  0.78912023  0.92370858    -0.31000
H1406       H  0.30153467  0.75133892  0.96865255     0.10900
S1407       S  0.29124602  0.82177091  0.54290948    -0.28100
H1408       H  0.34759038  0.85551898  0.00626005     0.08100
H1409       H  0.47010421  0.91405021  0.92828457     0.26500
H1410       H  0.32727165  0.75794768  0.92474627     0.21300
H1411       H  0.26216746  0.79789191  0.53779504     0.26600
H1412       H  0.30744399  0.83380151  0.93837645     0.15500
C1413       C  0.15634298  0.64320432  0.99764295    -0.11800
C1414       C  0.16226345  0.63855136  0.96737216     0.14700
C1415       C  0.19132875  0.65607670  0.95542209     0.01600
C1416       C  0.21367251  0.67805928  0.97382934    -0.16200
C1417       C  0.20785366  0.68336611  0.00408020    -0.11000
C1418       C  0.17453965  0.66986744  0.51704904     0.08300
C1419       C  0.13711538  0.61781151  0.94764271     0.09400
S1420       S  0.20109172  0.65262445  0.91638830    -0.25300
H1421       H  0.23584909  0.69129015  0.96422140     0.19600
S1422       S  0.16296431  0.67777325  0.55317435    -0.31000
H1423       H  0.13384724  0.63020308  0.00656478     0.10000
C1424       C  0.12863093  0.58753540  0.94480676     0.03200
C1425       C  0.10681807  0.56969376  0.92317957    -0.13300
C1426       C  0.09319816  0.58147889  0.90425253    -0.09000
C1427       C  0.10101553  0.61171156  0.90837625     0.06600
C1428       C  0.12260559  0.62930754  0.93013560    -0.14100
S1429       S  0.14654843  0.57203986  0.96773397    -0.31000
H1430       H  0.10074300  0.54654759  0.92064000     0.10900
S1431       S  0.08612709  0.63008062  0.88541785    -0.28100
H1432       H  0.12911716  0.65261743  0.93254787     0.08100
H1433       H  0.17948127  0.70895146  0.54921523     0.26500
H1434       H  0.13012802  0.54271492  0.95632697     0.21300
H1435       H  0.09203649  0.62068237  0.85726668     0.26600
H1436       H  0.18011276  0.62220136  0.91268329     0.15500
C1437       C  0.39745501  0.87530291  0.70861483    -0.11800
C1438       C  0.36750871  0.85865195  0.71773061     0.14700
C1439       C  0.35875373  0.86495215  0.74613564     0.01600
C1440       C  0.38020248  0.88668043  0.76531283    -0.16200
C1441       C  0.41036546  0.90297946  0.75668785    -0.11000
C1442       C  0.41900406  0.89734797  0.72770992     0.08300
C1443       C  0.34646037  0.83285560  0.69887891     0.09400
S1444       S  0.32063556  0.84583033  0.75943921    -0.25300
H1445       H  0.37317469  0.89096346  0.78726268     0.19600
S1446       S  0.45703288  0.91594164  0.71423645    -0.31000
H1447       H  0.40427792  0.87022615  0.68696564     0.10000
C1448       C  0.33764841  0.83637544  0.66926896     0.03200
C1449       C  0.31642644  0.81109337  0.65317025    -0.13300
C1450       C  0.30375087  0.78240312  0.66617897    -0.09000
C1451       C  0.31386977  0.77896005  0.69527394     0.06600
C1452       C  0.33486796  0.80416498  0.71128741    -0.14100
S1453       S  0.35195225  0.87310306  0.65280751    -0.31000
H1454       H  0.30868804  0.81383507  0.63095097     0.10900
S1455       S  0.30151371  0.74315439  0.71305509    -0.28100
H1456       H  0.34224665  0.80144221  0.73375979     0.08100
H1457       H  0.46981540  0.91685431  0.74288111     0.26500
H1458       H  0.33787666  0.86362478  0.62404319     0.21300
H1459       H  0.29901995  0.72815493  0.68528547     0.26600
H1460       H  0.30753263  0.84005240  0.73008866     0.15500
C1461       C  0.17489196  0.67587678  0.71706451    -0.11800
C1462       C  0.16050568  0.64616059  0.70721519     0.14700
C1463       C  0.16809354  0.63901597  0.67858026     0.01600
C1464       C  0.19053172  0.66176468  0.66079302    -0.16200
C1465       C  0.20544722  0.69157781  0.67082210    -0.11000
C1466       C  0.19694507  0.69867562  0.69912914     0.08300
C1467       C  0.13754945  0.62335921  0.72743080     0.09400
S1468       S  0.15091003  0.60137705  0.66385721    -0.25300
H1469       H  0.19683104  0.65599885  0.63923276     0.19600
S1470       S  0.21237356  0.73628676  0.71333998    -0.31000
H1471       H  0.16865946  0.68135893  0.73884440     0.10000
C1472       C  0.14424274  0.60681851  0.74820366     0.03200
C1473       C  0.12192515  0.58644696  0.76801435    -0.13300
C1474       C  0.09277626  0.58183483  0.76712247    -0.09000
C1475       C  0.08604407  0.59745859  0.74482548     0.06600
C1476       C  0.10861082  0.61856821  0.72593950    -0.14100
S1477       S  0.18135075  0.61217882  0.74989984    -0.31000
H1478       H  0.12748459  0.57461241  0.78479626     0.10900
S1479       S  0.04912269  0.59039339  0.73745897    -0.28100
H1480       H  0.10343837  0.63087762  0.70931235     0.08100
H1481       H  0.21400135  0.74893638  0.68424029     0.26500
H1482       H  0.17501450  0.58955480  0.77154580     0.21300
H1483       H  0.03525760  0.55958234  0.74304630     0.26600
H1484       H  0.12421305  0.58919486  0.68064312     0.15500
C1485       C  0.72920491  0.21427744  0.15162904     0.79800
N1486       N  0.72857502  0.21357936  0.12031040    -0.78500
C1487       C  0.75202839  0.23468163  0.10378181     0.82200
N1488       N  0.77609017  0.25662758  0.11857891    -0.78500
C1489       C  0.77726019  0.25721453  0.14970771     0.82300
N1490       N  0.75380843  0.23603252  0.16593651    -0.80200
C1491       C  0.72742633  0.21240847  0.02337490     0.79800
N1492       N  0.72880655  0.21169143  0.05454932    -0.78500
C1493       C  0.75117051  0.23480804  0.07010452     0.82200
N1494       N  0.77254891  0.25864357  0.05437805    -0.78500
C1495       C  0.77150309  0.25970376  0.02327253     0.82300
N1496       N  0.74904173  0.23645733  0.00792875    -0.80200
C1497       C  0.74321859  0.47510518  0.15083247     0.79800
N1498       N  0.74247246  0.47328524  0.11960776    -0.78500
C1499       C  0.71977753  0.47285444  0.10366321     0.82200
N1500       N  0.69784034  0.47433515  0.11906037    -0.78500
C1501       C  0.69845347  0.47638998  0.15019268     0.85100
N1502       N  0.72102740  0.47642623  0.16602977    -0.80200
C1503       C  0.74098791  0.47058572  0.02269646     0.79800
N1504       N  0.71783642  0.46991354  0.00756189    -0.78500
C1505       C  0.69568227  0.47068163  0.02319682     0.82200
N1506       N  0.69634143  0.47141509  0.05440468    -0.78500
C1507       C  0.71906188  0.47142090  0.06989893     0.82300
N1508       N  0.74142250  0.47107067  0.05397558    -0.80200
C1509       C  0.98157458  0.23477241  0.14905883     0.79800
N1510       N  0.98531999  0.23656761  0.11800817    -0.78500
C1511       C  0.98520049  0.21396197  0.10217802     0.82200
N1512       N  0.98156834  0.18955223  0.11754105    -0.78500
C1513       C  0.97837466  0.18759614  0.14857249     0.82300
N1514       N  0.97826511  0.21025434  0.16417930    -0.80200
C1515       C  0.99467868  0.23997902  0.02109755     0.79800
N1516       N  0.99068468  0.23862024  0.05216112    -0.78500
C1517       C  0.98966761  0.21586800  0.06869776     0.82200
N1518       N  0.99256562  0.19439210  0.05410138    -0.78500
C1519       C  0.99606432  0.19511546  0.02316218     0.82300
N1520       N  0.99712922  0.21799035  0.00680011    -0.80200
O1521       O  0.50776960  0.40981893  0.36879542    -0.88600
C1522       C  0.56874406  0.06452462  0.29166620     1.11400
O1523       O  0.98394315  0.44569960  0.33509353    -1.36400
O1524       O  0.57393015  0.04378323  0.37083217    -0.90100
O1525       O  0.95825547  0.38561544  0.36968126    -0.90800
O1526       O  0.95329377  0.44610475  0.39981952    -0.79600
O1527       O  0.54163360  0.47588281  0.36309185    -1.01700
C1528       C  0.98973069  0.03289334  0.39315344     1.21500
O1529       O  0.95344659  0.47692001  0.33579824    -1.36600
Mn1530     Mn  0.98445720  0.47751401  0.30216167     1.82100
O1531       O  0.98852220  0.00921179  0.40188758    -0.78700
O1532       O  0.54814244  0.06751758  0.37047098    -0.88100
C1533       C  0.98371397  0.03159344  0.28121184     1.12600
C1534       C  0.56888071  0.06384280  0.38088448     1.07300
O1535       O  0.95395079  0.44734413  0.27051458    -0.79600
O1536       O  0.51429222  0.00773532  0.33620016    -1.33300
O1537       O  0.92616684  0.41866578  0.30583955    -0.98800
C1538       C  0.89723174  0.47459689  0.38083100     1.06000
Mn1539     Mn  0.51534368  0.04904883  0.33653683     1.48600
O1540       O  0.89194246  0.45040810  0.36817514    -0.88000
Mn1541     Mn  0.94396459  0.40357215  0.33520070     1.49600
O1542       O  0.50693544  0.40971496  0.29983567    -0.91900
C1543       C  0.53832796  0.47604993  0.39073904     1.19200
C1544       C  0.98273438  0.38946624  0.29016908     1.11300
Mn1545     Mn  0.98463624  0.47682834  0.36892703     1.81000
O1546       O  0.98532761  0.03575180  0.30877912    -0.97000
Mn1547     Mn  0.52251584  0.44248335  0.33427797     1.49300
C1548       C  0.98288350  0.38925031  0.37944809     1.07800
Mn1549     Mn  0.95308719  0.01746333  0.33912070     1.49900
C1550       C  0.89832297  0.47766990  0.29126112     1.10700
O1551       O  0.92520650  0.41820304  0.36404675    -1.02800
O1552       O  0.54751581  0.06770817  0.30163392    -0.92500
C1553       C  0.92993625  0.42301026  0.39160163     1.22000
O1554       O  0.98826807  0.03595875  0.36568724    -1.03200
O1555       O  0.57408213  0.04484113  0.30224460    -0.90600
O1556       O  0.91905864  0.00363863  0.30645856    -0.90200
O1557       O  0.95840158  0.38543806  0.30122577    -0.90300
Mn1558     Mn  0.55684373  0.01154217  0.33583616     1.47900
O1559       O  0.98444682  0.00909281  0.27181749    -0.78700
C1560       C  0.93119537  0.42363131  0.27840182     1.15000
O1561       O  0.51558409  0.47633805  0.39989696    -0.77500
O1562       O  0.51411965  0.47723372  0.26989607    -0.77100
Mn1563     Mn  0.91105771  0.43693714  0.33449052     1.51100
O1564       O  0.92178367  0.00184953  0.37557291    -0.89400
O1565       O  0.54133100  0.47610126  0.30542899    -0.97000
O1566       O  0.89422217  0.45236752  0.29970748    -0.92000
C1567       C  0.53687870  0.47644961  0.27793434     1.12800
C1568       C  0.98977314  0.10104359  0.42595031    -0.11800
C1569       C  0.00523022  0.10555128  0.45355879     0.14700
C1570       C  0.01538972  0.08583146  0.46171422     0.01600
C1571       C  0.00945209  0.06182519  0.44218838    -0.16200
C1572       C  0.99389317  0.05727771  0.41436400    -0.11000
C1573       C  0.47642699  0.07280506  0.40747741     0.08300
C1574       C  0.00704240  0.12918867  0.47421346     0.09400
S1575       S  0.03624943  0.09031567  0.49639246    -0.25300
H1576       H  0.01759336  0.04700079  0.44844872     0.19600
S1577       S  0.44941258  0.06382638  0.37714257    -0.31000
H1578       H  0.47372116  0.11116286  0.42135862     0.10000
C1579       C  0.52294212  0.16093814  0.45782105     0.03200
C1580       C  0.52247616  0.18112411  0.98023973    -0.13300
C1581       C  0.99883237  0.17129647  0.00734388    -0.09000
C1582       C  0.98258695  0.14151127  0.51477079     0.06600
C1583       C  0.98704332  0.12059850  0.49890818    -0.14100
S1584       S  0.54212889  0.17019604  0.42127386    -0.31000
H1585       H  0.53370143  0.20379318  0.97160613     0.10900
S1586       S  0.95336510  0.12710101  0.54327232    -0.28100
H1587       H  0.97331216  0.09711000  0.50449747     0.08100
H1588       H  0.44936106  0.09090280  0.37744491     0.26500
H1589       H  0.55841886  0.19980989  0.93090317     0.21300
H1590       H  0.94200496  0.14551204  0.53437585     0.26600
H1591       H  0.04471418  0.11994311  0.00052313     0.15500
C1592       C  0.96026834  0.32146901  0.43155845    -0.11800
C1593       C  0.98667679  0.33055049  0.44794605     0.14700
C1594       C  0.51323961  0.36315178  0.44445496     0.01600
C1595       C  0.51007789  0.38111940  0.42245071    -0.16200
C1596       C  0.98272540  0.36912935  0.40419176    -0.11000
C1597       C  0.95777372  0.34038615  0.41030844     0.08300
C1598       C  0.98888960  0.30832745  0.46772587     0.09400
S1599       S  0.54780091  0.37907245  0.46546297    -0.25300
H1600       H  0.52867034  0.40345744  0.41855551     0.19600
S1601       S  0.92262016  0.32544952  0.39067381    -0.31000
H1602       H  0.94150434  0.29910430  0.43495970     0.10000
C1603       C  0.97073843  0.29572421  0.49392113     0.03200
C1604       C  0.97683630  0.27597444  0.01335177    -0.13300
C1605       C  0.99228411  0.26372527  0.50211084    -0.09000
C1606       C  0.01123929  0.27724321  0.47646570     0.06600
C1607       C  0.00903025  0.29904980  0.45943380    -0.14100
S1608       S  0.45386971  0.31227870  0.00689618    -0.31000
H1609       H  0.96426095  0.26748433  0.03447091     0.10900
S1610       S  0.03942068  0.26817424  0.46603411    -0.28100
H1611       H  0.02303600  0.30900227  0.43942003     0.08100
H1612       H  0.91668089  0.34685027  0.40340225     0.26500
H1613       H  0.44382426  0.29474713  0.03373680     0.21300
H1614       H  0.05224746  0.28875344  0.44173894     0.26600
H1615       H  0.53541982  0.36247010  0.49252719     0.15500
C1616       C  0.50139986  0.13077608  0.17517225    -0.11800
C1617       C  0.96886300  0.11179352  0.19976780     0.14700
C1618       C  0.95323600  0.12635171  0.20851968     0.01600
C1619       C  0.95673952  0.15085300  0.19145698    -0.16200
C1620       C  0.97527819  0.16117100  0.16537810    -0.11000
C1621       C  0.50495877  0.15548804  0.15841186     0.08300
C1622       C  0.97101945  0.09014830  0.22043592     0.09400
S1623       S  0.92884933  0.11493411  0.24154475    -0.25300
H1624       H  0.94475307  0.16190059  0.19860099     0.19600
S1625       S  0.53504307  0.17190398  0.13091037    -0.31000
H1626       H  0.51645465  0.12244098  0.17094652     0.10000
C1627       C  0.96078255  0.06027951  0.21197441     0.03200
C1628       C  0.96559267  0.04168539  0.23186303    -0.13300
C1629       C  0.97996793  0.05222385  0.26034558    -0.09000
C1630       C  0.48859785  0.08191960  0.27041419     0.06600
C1631       C  0.48822758  0.10234994  0.24961564    -0.14100
S1632       S  0.94066085  0.04562277  0.17644668    -0.31000
H1633       H  0.95765859  0.01870947  0.22546991     0.10900
S1634       S  0.49819931  0.09374335  0.31004444    -0.28100
H1635       H  0.49390084  0.12442160  0.25739368     0.08100
H1636       H  0.54331716  0.20161553  0.13767266     0.26500
H1637       H  0.93520799  0.01633985  0.18010299     0.21300
H1638       H  0.50640839  0.12384456  0.30607012     0.26600
H1639       H  0.92116420  0.08476726  0.24095183     0.15500
C1640       C  0.47260937  0.29995987  0.17417438    -0.11800
C1641       C  0.98536842  0.30628725  0.20329159     0.14700
C1642       C  0.99627616  0.28822293  0.21485947     0.01600
C1643       C  0.99504039  0.26551249  0.19650710    -0.16200
C1644       C  0.98275437  0.25989115  0.16676698    -0.11000
C1645       C  0.47366645  0.27875305  0.15503462     0.08300
C1646       C  0.98439111  0.32927213  0.22257877     0.09400
S1647       S  0.01196515  0.29289920  0.25288515    -0.25300
H1648       H  0.00367082  0.25195631  0.20571154     0.19600
S1649       S  0.45593373  0.27216210  0.11803224    -0.31000
H1650       H  0.46195923  0.31201851  0.16596710     0.10000
C1651       C  0.50977274  0.35620905  0.22975311     0.03200
C1652       C  0.50808060  0.37575251  0.25086766    -0.13300
C1653       C  0.98183570  0.36907484  0.26536366    -0.09000
C1654       C  0.95598257  0.34110128  0.25867550     0.06600
C1655       C  0.95770694  0.32172449  0.23757531    -0.14100
S1656       S  0.54488659  0.36601633  0.21176788    -0.31000
H1657       H  0.52816571  0.39651490  0.25627712     0.10900
S1658       S  0.92042253  0.32742237  0.27727373    -0.28100
H1659       H  0.93818401  0.30003182  0.23344757     0.08100
H1660       H  0.48317527  0.28457884  0.10202664     0.26500
H1661       H  0.56243352  0.39231454  0.22856501     0.21300
H1662       H  0.91679147  0.35064328  0.26564804     0.26600
H1663       H  0.99366463  0.30196317  0.26733499     0.15500
C1664       C  0.79749510  0.48878293  0.45361525    -0.11800
C1665       C  0.81200909  0.47457789  0.46591774     0.14700
C1666       C  0.80649810  0.46468299  0.49676711     0.01600
C1667       C  0.77814515  0.45437306  0.01475353    -0.16200
C1668       C  0.77062510  0.48190402  0.50166953    -0.11000
C1669       C  0.77737676  0.49300926  0.47112548     0.08300
C1670       C  0.83370562  0.47190781  0.44608756     0.09400
S1671       S  0.81463767  0.43023648  0.01191565    -0.25300
H1672       H  0.76998463  0.44117740  0.03559363     0.19600
S1673       S  0.76389536  0.01465225  0.45602418    -0.31000
H1674       H  0.80549802  0.99965595  0.43362163     0.10000
C1675       C  0.82428111  0.45236110  0.42073208     0.03200
C1676       C  0.84556702  0.45313766  0.40032133    -0.13300
C1677       C  0.87621815  0.47272259  0.40502835    -0.09000
C1678       C  0.88548912  0.49035252  0.43197014     0.06600
C1679       C  0.86422846  0.49035704  0.45172457    -0.14100
S1680       S  0.78513819  0.42650846  0.41432728    -0.31000
H1681       H  0.83823995  0.43903309  0.38010588     0.10900
S1682       S  0.92651741  0.01454250  0.44537004    -0.28100
H1683       H  0.87405243  0.00698515  0.47409929     0.08100
H1684       H  0.76454728  0.02951293  0.48334097     0.26500
H1685       H  0.78889315  0.41006678  0.39082289     0.21300
H1686       H  0.93467719  0.99442786  0.43358460     0.26600
H1687       H  0.82909204  0.43448852  0.48804352     0.15500
C1688       C  0.61017980  0.48378510  0.42301015    -0.11800
C1689       C  0.60173289  0.47300271  0.45300089     0.14700
C1690       C  0.57255478  0.46425759  0.46305645     0.01600
C1691       C  0.55256181  0.46620716  0.44270445    -0.16200
C1692       C  0.56070566  0.47594479  0.41212913    -0.11000
C1693       C  0.59016526  0.48486277  0.40245274     0.08300
C1694       C  0.62462439  0.47227397  0.47287355     0.09400
S1695       S  0.55926639  0.44996646  0.50118358    -0.25300
H1696       H  0.53017914  0.45917156  0.45056484     0.19600
S1697       S  0.60447178  0.00052024  0.36424547    -0.31000
H1698       H  0.63445326  0.99495630  0.41658418     0.10000
C1699       C  0.63704034  0.45439472  0.46516338     0.03200
C1700       C  0.66150428  0.45736021  0.48181648    -0.13300
C1701       C  0.67151938  0.47128778  0.00598783    -0.09000
C1702       C  0.66238038  0.49220641  0.01227627     0.06600
C1703       C  0.63671464  0.49238026  0.49747260    -0.14100
S1704       S  0.62186921  0.42786458  0.43392866    -0.31000
H1705       H  0.67102404  0.44366289  0.47587657     0.10900
S1706       S  0.67843163  0.02805374  0.04343843    -0.28100
H1707       H  0.63098189  0.01094999  0.50385339     0.08100
H1708       H  0.63158279  0.00072277  0.36622330     0.26500
H1709       H  0.64082672  0.41605303  0.43726957     0.21300
H1710       H  0.70837947  0.03692398  0.03745021     0.26600
H1711       H  0.57830341  0.43854593  0.50640737     0.15500
C1712       C  0.82025048  0.49265503  0.17740848    -0.11800
C1713       C  0.81300060  0.47398747  0.20321665     0.14700
C1714       C  0.78274334  0.45590187  0.21173187     0.01600
C1715       C  0.76054937  0.45649693  0.19403806    -0.16200
C1716       C  0.76775233  0.47529530  0.16831789    -0.11000
C1717       C  0.79807402  0.49378064  0.16014047     0.08300
C1718       C  0.83743935  0.47593004  0.22250945     0.09400
S1719       S  0.77097471  0.43213156  0.24529660    -0.25300
H1720       H  0.73740731  0.44235270  0.20061377     0.19600
S1721       S  0.81007719  0.52064877  0.12927335    -0.31000
H1722       H  0.84345765  0.50715135  0.17126273     0.10000
C1723       C  0.84315111  0.45220565  0.22498956     0.03200
C1724       C  0.86377688  0.45380022  0.24688795    -0.13300
C1725       C  0.87884601  0.47861093  0.26658880    -0.09000
C1726       C  0.87393845  0.50300761  0.26272912     0.06600
C1727       C  0.85374197  0.50147191  0.24054912    -0.14100
S1728       S  0.82396424  0.41982078  0.20051146    -0.31000
H1729       H  0.86776929  0.43532733  0.24899668     0.10900
S1730       S  0.88126735  0.02995172  0.30334955    -0.28100
H1731       H  0.84428097  0.02044568  0.25225398     0.08100
H1732       H  0.78820360  0.52853595  0.13438369     0.26500
H1733       H  0.83860686  0.40497844  0.21114780     0.21300
H1734       H  0.87546645  0.00860367  0.32640585     0.26600
H1735       H  0.79570944  0.45082438  0.26367485     0.15500
C1736       C  0.65595187  0.49672353  0.20710286    -0.11800
C1737       C  0.62637436  0.47651844  0.19872225     0.14700
C1738       C  0.62069413  0.45748825  0.17325791     0.01600
C1739       C  0.64468816  0.45854170  0.15743242    -0.16200
C1740       C  0.67429107  0.47795145  0.16652358    -0.11000
C1741       C  0.67990117  0.49790798  0.19112311     0.08300
C1742       C  0.60225335  0.47518763  0.21796154     0.09400
S1743       S  0.58365807  0.43108026  0.15981016    -0.25300
H1744       H  0.64014949  0.44340617  0.13834487     0.19600
S1745       S  0.72038739  0.03368095  0.20692372    -0.31000
H1746       H  0.66296635  0.01608458  0.23038460     0.10000
C1747       C  0.59585028  0.46132092  0.24698361     0.03200
C1748       C  0.57415161  0.46183825  0.26555403    -0.13300
C1749       C  0.55818891  0.47562505  0.25572567    -0.09000
C1750       C  0.56409196  0.48877249  0.22605264     0.06600
C1751       C  0.58602737  0.48837747  0.20754690    -0.14100
S1752       S  0.61533788  0.44288080  0.26048393    -0.31000
H1753       H  0.56972180  0.45149286  0.28805673     0.10900
S1754       S  0.54557438  0.50741220  0.21079456    -0.28100
H1755       H  0.59093907  0.49895088  0.18511625     0.08100
H1756       H  0.73297828  0.04237586  0.17738574     0.26500
H1757       H  0.59602748  0.42763690  0.28516788     0.21300
H1758       H  0.54707925  0.52212888  0.23832566     0.26600
H1759       H  0.56763360  0.42983198  0.18628241     0.15500
C1760       C  0.89411548  0.37511423  0.46294470    -0.11800
C1761       C  0.86439508  0.35838706  0.45329822     0.14700
C1762       C  0.85612504  0.36451557  0.42452925     0.01600
C1763       C  0.87800280  0.38571819  0.40518135    -0.16200
C1764       C  0.90808574  0.40183066  0.41411489    -0.11000
C1765       C  0.91609154  0.39666182  0.44368516     0.08300
C1766       C  0.84276893  0.33320215  0.47246254     0.09400
S1767       S  0.81812241  0.34562399  0.41093153    -0.25300
H1768       H  0.87136112  0.38972769  0.38286509     0.19600
S1769       S  0.95390208  0.41522751  0.45763702    -0.31000
H1770       H  0.90042959  0.37044326  0.48511553     0.10000
C1771       C  0.83252580  0.30344538  0.46363693     0.03200
C1772       C  0.80939696  0.28007989  0.48026277    -0.13300
C1773       C  0.79487957  0.28559723  0.00606615    -0.09000
C1774       C  0.80799124  0.31578839  0.51545282     0.06600
C1775       C  0.83099418  0.33907664  0.49872360    -0.14100
S1776       S  0.84912111  0.29530731  0.43132473    -0.31000
H1777       H  0.80120914  0.25717168  0.47339823     0.10900
S1778       S  0.79306156  0.32531167  0.04964716    -0.28100
H1779       H  0.83894408  0.36199308  0.50545599     0.08100
H1780       H  0.96625968  0.41262458  0.42991306     0.26500
H1781       H  0.83303180  0.26405332  0.43449622     0.21300
H1782       H  0.76298038  0.30392075  0.04422856     0.26600
H1783       H  0.80459014  0.34020221  0.44005570     0.15500
C1784       C  0.65017257  0.14876755  0.49914550    -0.11800
C1785       C  0.65529255  0.14526301  0.46822070     0.14700
C1786       C  0.68344936  0.16467957  0.45515371     0.01600
C1787       C  0.70579527  0.18711041  0.47315209    -0.16200
C1788       C  0.70101892  0.19088341  0.50429107    -0.11000
C1789       C  0.67506453  0.16645049  0.01897620     0.08300
C1790       C  0.63033287  0.12305591  0.44916102     0.09400
S1791       S  0.69213025  0.16233131  0.41541712    -0.25300
H1792       H  0.72731275  0.20154584  0.46262446     0.19600
S1793       S  0.66374809  0.16988288  0.05722895    -0.31000
H1794       H  0.62830215  0.13432398  0.50897768     0.10000
C1795       C  0.62265028  0.09286844  0.44819491     0.03200
C1796       C  0.60195152  0.07378660  0.42625686    -0.13300
C1797       C  0.58855288  0.08424326  0.40538345    -0.09000
C1798       C  0.59533512  0.11432451  0.40772122     0.06600
C1799       C  0.61586235  0.13315489  0.42966350    -0.14100
S1800       S  0.64034688  0.07907121  0.47377616    -0.31000
H1801       H  0.59665513  0.05077590  0.42495161     0.10900
S1802       S  0.58066186  0.13104711  0.38201535    -0.28100
H1803       H  0.62175026  0.15638283  0.43055708     0.08100
H1804       H  0.67419948  0.20063888  0.05429279     0.26500
H1805       H  0.62217059  0.04867291  0.46634620     0.21300
H1806       H  0.58722846  0.12025411  0.35520927     0.26600
H1807       H  0.67389466  0.13120963  0.41276778     0.15500
C1808       C  0.89734582  0.37411953  0.20804063    -0.11800
C1809       C  0.86727451  0.35812725  0.21679275     0.14700
C1810       C  0.85833562  0.36514844  0.24462463     0.01600
C1811       C  0.87975777  0.38667802  0.26393308    -0.16200
C1812       C  0.91005303  0.40229737  0.25577037    -0.11000
C1813       C  0.91887254  0.39621512  0.22710634     0.08300
C1814       C  0.84603983  0.33243147  0.19807150     0.09400
S1815       S  0.81993669  0.34731193  0.25682379    -0.25300
H1816       H  0.87259327  0.39142952  0.28555120     0.19600
S1817       S  0.95703211  0.41417617  0.21407416    -0.31000
H1818       H  0.90421611  0.36856742  0.18670023     0.10000
C1819       C  0.83650881  0.33619931  0.16899357     0.03200
C1820       C  0.81486364  0.31106426  0.15309919    -0.13300
C1821       C  0.80258368  0.28225391  0.16574995    -0.09000
C1822       C  0.81336874  0.27857056  0.19431663     0.06600
C1823       C  0.83467429  0.30368030  0.21024650    -0.14100
S1824       S  0.85068828  0.37307118  0.15294856    -0.31000
H1825       H  0.80665027  0.31398769  0.13125085     0.10900
S1826       S  0.80167410  0.24259226  0.21132785    -0.28100
H1827       H  0.84253722  0.30084088  0.23238290     0.08100
H1828       H  0.96957307  0.41572302  0.24300865     0.26500
H1829       H  0.83396077  0.36402645  0.12560679     0.21300
H1830       H  0.79842218  0.22791288  0.18316402     0.26600
H1831       H  0.80781037  0.34263980  0.22705358     0.15500
C1832       C  0.67659103  0.17151936  0.21814124    -0.11800
C1833       C  0.65521004  0.14548912  0.20339960     0.14700
C1834       C  0.65722272  0.14271622  0.17132611     0.01600
C1835       C  0.68156834  0.16528009  0.15516730    -0.16200
C1836       C  0.70336082  0.19148236  0.16993628    -0.11000
C1837       C  0.69987881  0.19479571  0.20188755     0.08300
C1838       C  0.63069764  0.12267448  0.22254953     0.09400
S1839       S  0.62931839  0.11142942  0.14960259    -0.25300
H1840       H  0.68322240  0.16234294  0.13071325     0.19600
S1841       S  0.72270156  0.22845405  0.22350357    -0.31000
H1842       H  0.67457029  0.17408577  0.24263942     0.10000
C1843       C  0.62844631  0.09515465  0.22968920     0.03200
C1844       C  0.60727523  0.07629693  0.25136007    -0.13300
C1845       C  0.58863008  0.08455727  0.26679416    -0.09000
C1846       C  0.59085495  0.11221781  0.25909443     0.06600
C1847       C  0.61155653  0.13059005  0.23686990    -0.14100
S1848       S  0.65384104  0.08487359  0.21297047    -0.31000
H1849       H  0.60591594  0.05532085  0.25692645     0.10900
S1850       S  0.56998216  0.12635241  0.27894513    -0.28100
H1851       H  0.61399100  0.15210939  0.23157943     0.08100
H1852       H  0.72073333  0.24713033  0.20127267     0.26500
H1853       H  0.64072271  0.05603300  0.22573074     0.21300
H1854       H  0.57655373  0.15014314  0.25880535     0.26600
H1855       H  0.60532593  0.10439768  0.16949640     0.15500
C1856       C  0.72836255  0.21369135  0.64989502     0.79800
N1857       N  0.72825283  0.21337099  0.61864858    -0.78500
C1858       C  0.75148836  0.23524048  0.60265864     0.82200
N1859       N  0.77488550  0.25757815  0.61798624    -0.78500
C1860       C  0.77553535  0.25781824  0.64918147     0.82300
N1861       N  0.75220338  0.23582299  0.66492004    -0.80200
C1862       C  0.72640806  0.21491285  0.52200140     0.79800
N1863       N  0.72761769  0.21368802  0.55317566    -0.78500
C1864       C  0.75087584  0.23567860  0.56899690     0.82200
N1865       N  0.77324977  0.25888091  0.55357871    -0.78500
C1866       C  0.77249521  0.26036754  0.52252569     0.82300
N1867       N  0.74918395  0.23829031  0.50682469    -0.80200
C1868       C  0.75036649  0.48525262  0.64894170     0.79800
N1869       N  0.74972742  0.48438172  0.61760613    -0.78500
C1870       C  0.72736463  0.48503219  0.60195757     0.82200
N1871       N  0.70543556  0.48622196  0.61777486    -0.78500
C1872       C  0.70580354  0.48718960  0.64896754     0.85100
N1873       N  0.72814824  0.48640876  0.66434144    -0.80200
C1874       C  0.74673268  0.48235170  0.52010880     0.79800
N1875       N  0.72234144  0.47994556  0.50586738    -0.78500
C1876       C  0.70026105  0.48024467  0.52224347     0.82200
N1877       N  0.70223249  0.48203609  0.55337997    -0.78500
C1878       C  0.72613573  0.48376692  0.56809505     0.82300
N1879       N  0.74836733  0.48392166  0.55139150    -0.80200
C1880       C  0.97807947  0.23344281  0.64800521     0.79800
N1881       N  0.98217803  0.23546381  0.61698362    -0.78500
C1882       C  0.98220687  0.21291961  0.60110402     0.82200
N1883       N  0.97832276  0.18836780  0.61638816    -0.78500
C1884       C  0.97470608  0.18615866  0.64737396     0.82300
N1885       N  0.97450760  0.20876362  0.66298368    -0.80200
C1886       C  0.99239146  0.23938575  0.52017915     0.79800
N1887       N  0.98773137  0.23760553  0.55112732    -0.78500
C1888       C  0.98713859  0.21506209  0.56765956     0.82200
N1889       N  0.99106321  0.19415576  0.55312467    -0.78500
C1890       C  0.99530034  0.19533682  0.52224293     0.82300
N1891       N  0.99599406  0.21805666  0.50590472    -0.80200
O1892       O  0.51166154  0.41109855  0.86799415    -0.88600
C1893       C  0.57136135  0.06381864  0.79117519     1.11400
O1894       O  0.98333012  0.44502391  0.83648443    -1.36400
O1895       O  0.57635579  0.04230821  0.87028718    -0.90100
O1896       O  0.95787689  0.38527322  0.87170722    -0.90800
O1897       O  0.95396146  0.44624436  0.90201667    -0.79600
O1898       O  0.54365894  0.47747187  0.86258845    -1.01700
C1899       C  0.98771157  0.03214094  0.89303558     1.21500
O1900       O  0.95346563  0.47686446  0.83780348    -1.36600
Mn1901     Mn  0.98363289  0.47676827  0.80352134     1.82100
O1902       O  0.98687274  0.00855145  0.90141759    -0.78700
O1903       O  0.55217138  0.06755823  0.87085065    -0.88100
C1904       C  0.98265616  0.03231571  0.78104608     1.12600
C1905       C  0.57221506  0.06271389  0.88101265     1.07300
O1906       O  0.95237740  0.44642185  0.77252960    -0.79600
O1907       O  0.51647235  0.00846178  0.83633898    -1.33300
O1908       O  0.92476022  0.41787979  0.80806168    -0.98800
C1909       C  0.89831297  0.47576613  0.88389685     1.06000
Mn1910     Mn  0.51916696  0.05059121  0.83713805     1.48600
O1911       O  0.89310996  0.45161320  0.87119252    -0.88000
Mn1912     Mn  0.94314185  0.40303181  0.83727886     1.49600
O1913       O  0.51099802  0.41156613  0.79895482    -0.91900
C1914       C  0.54039832  0.47740001  0.89022853     1.19200
C1915       C  0.98070604  0.38777074  0.79165444     1.11300
Mn1916     Mn  0.98502806  0.47669944  0.87044301     1.81000
O1917       O  0.98429248  0.03642937  0.80864442    -0.97000
Mn1918     Mn  0.52560490  0.44416439  0.83366112     1.49300
C1919       C  0.98260972  0.38887778  0.88113981     1.07800
Mn1920     Mn  0.95186378  0.01745391  0.83859839     1.49900
C1921       C  0.89801920  0.47805584  0.79422135     1.10700
O1922       O  0.92546204  0.41859630  0.86632499    -1.02800
O1923       O  0.55120671  0.06839021  0.80186447    -0.92500
C1924       C  0.93034636  0.42333406  0.89386419     1.22000
O1925       O  0.98661924  0.03581790  0.86564567    -1.03200
O1926       O  0.57588144  0.04357651  0.80170018    -0.90600
O1927       O  0.91845423  0.00368718  0.80546230    -0.90200
O1928       O  0.95660415  0.38402163  0.80312193    -0.90300
Mn1929     Mn  0.55819732  0.01042769  0.83529589     1.47900
O1930       O  0.98371620  0.01002440  0.77156981    -0.78700
C1931       C  0.92951221  0.42284534  0.78054863     1.15000
O1932       O  0.51735816  0.47695933  0.89958589    -0.77500
O1933       O  0.51627758  0.47871753  0.76951551    -0.77100
Mn1934     Mn  0.91089682  0.43716747  0.83708630     1.51100
O1935       O  0.92005083  0.00136907  0.87439074    -0.89400
O1936       O  0.54369335  0.47824735  0.80515144    -0.97000
O1937       O  0.89367316  0.45260925  0.80254312    -0.92000
C1938       C  0.53950043  0.47877823  0.77764060     1.12800
C1939       C  0.98498179  0.09800039  0.92761730    -0.11800
C1940       C  0.00176487  0.10325135  0.95439258     0.14700
C1941       C  0.01334415  0.08452407  0.96161430     0.01600
C1942       C  0.00761003  0.06080886  0.94184762    -0.16200
C1943       C  0.99107955  0.05576803  0.91466939    -0.11000
C1944       C  0.48042917  0.07441967  0.91015688     0.08300
C1945       C  0.00453914  0.12737606  0.97471516     0.09400
S1946       S  0.03597968  0.08993420  0.99512955    -0.25300
H1947       H  0.01689025  0.04676274  0.94724822     0.19600
S1948       S  0.45482207  0.06749255  0.87894037    -0.31000
H1949       H  0.47680431  0.11166195  0.92601532     0.10000
C1950       C  0.52513357  0.15915683  0.96418876     0.03200
C1951       C  0.52152325  0.18310202  0.47504778    -0.13300
C1952       C  0.99919617  0.17211150  0.50649629    -0.09000
C1953       C  0.98279333  0.14098872  0.01683473     0.06600
C1954       C  0.98617848  0.11955977  0.00070320    -0.14100
S1955       S  0.54700473  0.16882461  0.92934509    -0.31000
H1956       H  0.53220775  0.20573454  0.46632320     0.10900
S1957       S  0.95562697  0.12751982  0.04742765    -0.28100
H1958       H  0.97290826  0.09626663  0.00725931     0.08100
H1959       H  0.45717151  0.09571858  0.87900387     0.26500
H1960       H  0.54821725  0.19984587  0.41986595     0.21300
H1961       H  0.94316785  0.14505399  0.03887215     0.26600
H1962       H  0.04779962  0.12119792  0.49955372     0.15500
C1963       C  0.96079084  0.32201835  0.93446522    -0.11800
C1964       C  0.98786843  0.33082099  0.94937202     0.14700
C1965       C  0.51470634  0.36147815  0.94324051     0.01600
C1966       C  0.51246588  0.38027344  0.92152109    -0.16200
C1967       C  0.98287282  0.36913227  0.90611118    -0.11000
C1968       C  0.95779403  0.34084260  0.91349046     0.08300
C1969       C  0.99046735  0.30864284  0.96877655     0.09400
S1970       S  0.54826386  0.37659088  0.96589559    -0.25300
H1971       H  0.53092691  0.40292799  0.91907498     0.19600
S1972       S  0.92172418  0.32632185  0.89593152    -0.31000
H1973       H  0.94188423  0.29995544  0.93882151     0.10000
C1974       C  0.97463495  0.29794054  0.99659766     0.03200
C1975       C  0.97256567  0.27356487  0.51076009    -0.13300
C1976       C  0.99452348  0.26428350  0.00292263    -0.09000
C1977       C  0.01110690  0.27579335  0.97537426     0.06600
C1978       C  0.00861980  0.29756837  0.95857793    -0.14100
S1979       S  0.45044863  0.30988194  0.50868538    -0.31000
H1980       H  0.95824496  0.26354237  0.53056097     0.10900
S1981       S  0.03647759  0.26407160  0.96176392    -0.28100
H1982       H  0.02075732  0.30600620  0.93720487     0.08100
H1983       H  0.91766994  0.34916081  0.90800119     0.26500
H1984       H  0.44023335  0.29103094  0.53458500     0.21300
H1985       H  0.04996971  0.28560713  0.93838311     0.26600
H1986       H  0.53536184  0.35801931  0.99163842     0.15500
C1987       C  0.50392086  0.13258991  0.67769041    -0.11800
C1988       C  0.96429195  0.11020970  0.69925658     0.14700
C1989       C  0.94967940  0.12572338  0.70830886     0.01600
C1990       C  0.95334818  0.15011638  0.69091243    -0.16200
C1991       C  0.97108255  0.15947979  0.66420768    -0.11000
C1992       C  0.50798422  0.15741919  0.66081488     0.08300
C1993       C  0.96692469  0.08897446  0.72025010     0.09400
S1994       S  0.92645608  0.11578375  0.74216005    -0.25300
H1995       H  0.94220225  0.16190624  0.69838475     0.19600
S1996       S  0.54171960  0.17737744  0.63848214    -0.31000
H1997       H  0.52097745  0.12644405  0.67690246     0.10000
C1998       C  0.95740416  0.05917642  0.71204695     0.03200
C1999       C  0.96309854  0.04122551  0.73199847    -0.13300
C2000       C  0.97788347  0.05235552  0.76020523    -0.09000
C2001       C  0.48400615  0.08111928  0.77082587     0.06600
C2002       C  0.48199363  0.10030791  0.74953154    -0.14100
S2003       S  0.93722405  0.04375159  0.67668186    -0.31000
H2004       H  0.95561657  0.01830376  0.72583545     0.10900
S2005       S  0.49231235  0.09360705  0.81032769    -0.28100
H2006       H  0.48423410  0.12119388  0.75718645     0.08100
H2007       H  0.54568326  0.20592291  0.64353844     0.26500
H2008       H  0.93406164  0.01530317  0.67979411     0.21300
H2009       H  0.49237354  0.12059886  0.80705591     0.26600
H2010       H  0.91828267  0.08548389  0.74239227     0.15500
C2011       C  0.48596645  0.30786951  0.67117082    -0.11800
C2012       C  0.98127288  0.30412192  0.70345425     0.14700
C2013       C  0.99179279  0.28564445  0.71477602     0.01600
C2014       C  0.99086174  0.26335767  0.69596780    -0.16200
C2015       C  0.97916035  0.25841758  0.66599255    -0.11000
C2016       C  0.48587076  0.28594395  0.65203089     0.08300
C2017       C  0.98084690  0.32728932  0.72304193     0.09400
S2018       S  0.00655397  0.28917934  0.75311023    -0.25300
H2019       H  0.99924534  0.24954212  0.70504245     0.19600
S2020       S  0.47906776  0.28707317  0.61134822    -0.31000
H2021       H  0.48226649  0.32495475  0.66147012     0.10000
C2022       C  0.51398851  0.35886833  0.72758803     0.03200
C2023       C  0.51215545  0.37840504  0.74865532    -0.13300
C2024       C  0.97938615  0.36717947  0.76671909    -0.09000
C2025       C  0.95294719  0.34005125  0.75895684     0.06600
C2026       C  0.95412454  0.32064455  0.73741520    -0.14100
S2027       S  0.54885100  0.36930978  0.70867682    -0.31000
H2028       H  0.53185310  0.39978780  0.75316114     0.10900
S2029       S  0.91715208  0.32745820  0.77656923    -0.28100
H2030       H  0.93409007  0.29959028  0.73246127     0.08100
H2031       H  0.47710837  0.31313253  0.61160989     0.26500
H2032       H  0.56620352  0.39628443  0.72457385     0.21300
H2033       H  0.91559016  0.35218053  0.76602632     0.26600
H2034       H  0.98839766  0.29849984  0.76742276     0.15500
C2035       C  0.79865947  0.48744527  0.96049366    -0.11800
C2036       C  0.81045244  0.46971688  0.96985959     0.14700
C2037       C  0.80046054  0.45333715  0.99758247     0.01600
C2038       C  0.78600815  0.46852949  0.51427595    -0.16200
C2039       C  0.76585646  0.47170744  0.00502395    -0.11000
C2040       C  0.77692266  0.48901068  0.97788124     0.08300
C2041       C  0.83325592  0.46930133  0.94994411     0.09400
S2042       S  0.82435322  0.44652175  0.51494722    -0.25300
H2043       H  0.78135226  0.46009030  0.53764687     0.19600
S2044       S  0.76854840  0.02454816  0.95987480    -0.31000
H2045       H  0.80753307  0.00740606  0.93400314     0.10000
C2046       C  0.82579015  0.44666293  0.92807641     0.03200
C2047       C  0.84767363  0.44899937  0.90748350    -0.13300
C2048       C  0.87712215  0.47347399  0.90840432    -0.09000
C2049       C  0.88461778  0.49508767  0.93179471     0.06600
C2050       C  0.86255517  0.49318289  0.95164833    -0.14100
S2051       S  0.78814114  0.41543334  0.92570012    -0.31000
H2052       H  0.84150162  0.43202203  0.89001795     0.10900
S2053       S  0.92450207  0.01008775  0.94634339    -0.28100
H2054       H  0.87292306  0.00571908  0.97382129     0.08100
H2055       H  0.76820340  0.03669963  0.98869793     0.26500
H2056       H  0.79322457  0.40040872  0.90166822     0.21300
H2057       H  0.93143215  0.98976936  0.93268913     0.26600
H2058       H  0.84238968  0.44503654  0.99697583     0.15500
C2059       C  0.61228480  0.48454559  0.92148749    -0.11800
C2060       C  0.60365516  0.47324715  0.95127486     0.14700
C2061       C  0.57468453  0.46476689  0.96160887     0.01600
C2062       C  0.55487804  0.46738226  0.94171058    -0.16200
C2063       C  0.56307012  0.47765854  0.91133269    -0.11000
C2064       C  0.59248842  0.48666915  0.90129090     0.08300
C2065       C  0.62590560  0.47124864  0.97082962     0.09400
S2066       S  0.56144171  0.44995051  0.99959468    -0.25300
H2067       H  0.53253370  0.46032236  0.94971751     0.19600
S2068       S  0.60403727  0.99592677  0.86268292    -0.31000
H2069       H  0.63416930  0.99116065  0.91529639     0.10000
C2070       C  0.63553206  0.45088847  0.96397124     0.03200
C2071       C  0.65801169  0.45093815  0.98178973    -0.13300
C2072       C  0.67403800  0.47788390  0.50606449    -0.09000
C2073       C  0.66143269  0.49565490  0.51384316     0.06600
C2074       C  0.63935485  0.49161855  0.99499615    -0.14100
S2075       S  0.61932939  0.42491339  0.93241203    -0.31000
H2076       H  0.66521304  0.43510471  0.97683678     0.10900
S2077       S  0.68058571  0.02724724  0.54295045    -0.28100
H2078       H  0.62973526  0.01023890  0.00257922     0.08100
H2079       H  0.63034021  0.99456653  0.86454196     0.26500
H2080       H  0.63771807  0.41235341  0.93475858     0.21300
H2081       H  0.71002990  0.03519384  0.53545641     0.26600
H2082       H  0.57967568  0.43746360  0.00394986     0.15500
C2083       C  0.82412266  0.49175226  0.67467814    -0.11800
C2084       C  0.81608616  0.47809472  0.70371964     0.14700
C2085       C  0.78662000  0.46676442  0.71429451     0.01600
C2086       C  0.76604651  0.46941716  0.69583861    -0.16200
C2087       C  0.77385625  0.48325389  0.66677450    -0.11000
C2088       C  0.80354158  0.49472106  0.65625530     0.08300
C2089       C  0.83945087  0.47898277  0.72403910     0.09400
S2090       S  0.77406357  0.45017218  0.75185332    -0.25300
H2091       H  0.74355334  0.46049134  0.70444801     0.19600
S2092       S  0.81733765  0.51523200  0.62080916    -0.31000
H2093       H  0.84693239  0.50118980  0.66682783     0.10000
C2094       C  0.84424245  0.45466848  0.72664024     0.03200
C2095       C  0.86380802  0.45515591  0.74927693    -0.13300
C2096       C  0.87884180  0.47954813  0.76949723    -0.09000
C2097       C  0.87467919  0.50443960  0.76571971     0.06600
C2098       C  0.85542494  0.50391389  0.74293274    -0.14100
S2099       S  0.82423927  0.42244163  0.70214553    -0.31000
H2100       H  0.86705285  0.43621037  0.75147653     0.10900
S2101       S  0.88608610  0.03459025  0.79637662    -0.28100
H2102       H  0.84899965  0.02343630  0.74516219     0.08100
H2103       H  0.80280893  0.53168723  0.62472401     0.26500
H2104       H  0.83692631  0.40611401  0.71391069     0.21300
H2105       H  0.87809985  0.01485067  0.82151035     0.26600
H2106       H  0.79296201  0.43839143  0.75496222     0.15500
C2107       C  0.66183022  0.50264476  0.70910464    -0.11800
C2108       C  0.63241393  0.48362111  0.69926926     0.14700
C2109       C  0.62742318  0.46690474  0.67202393     0.01600
C2110       C  0.65179895  0.46933271  0.65560809    -0.16200
C2111       C  0.68122137  0.48762687  0.66597093    -0.11000
C2112       C  0.68616928  0.50496385  0.69278282     0.08300
C2113       C  0.60764667  0.48131119  0.71846259     0.09400
S2114       S  0.59066026  0.44150376  0.65725477    -0.25300
H2115       H  0.64764822  0.45595184  0.63507929     0.19600
S2116       S  0.72114105  0.03143599  0.70886650    -0.31000
H2117       H  0.66350439  0.01461051  0.73113214     0.10000
C2118       C  0.60136921  0.46737884  0.74749208     0.03200
C2119       C  0.57875343  0.46661240  0.76569448    -0.13300
C2120       C  0.56180820  0.47930391  0.75567036    -0.09000
C2121       C  0.56784498  0.49283459  0.72618985     0.06600
C2122       C  0.59054673  0.49355878  0.70793866    -0.14100
S2123       S  0.62185521  0.45003784  0.76124008    -0.31000
H2124       H  0.57424043  0.45597673  0.78804622     0.10900
S2125       S  0.54854475  0.51069359  0.71098281    -0.28100
H2126       H  0.59538490  0.50433290  0.68561320     0.08100
H2127       H  0.73465209  0.04183962  0.67993879     0.26500
H2128       H  0.60601934  0.43870795  0.78890736     0.21300
H2129       H  0.54927088  0.52486470  0.73869451     0.26600
H2130       H  0.57506604  0.43567927  0.68514754     0.15500
C2131       C  0.89290468  0.37322815  0.96351612    -0.11800
C2132       C  0.86301780  0.35876985  0.95412059     0.14700
C2133       C  0.85542079  0.36745949  0.92645616     0.01600
C2134       C  0.87794075  0.38859449  0.90765977    -0.16200
C2135       C  0.90809323  0.40243190  0.91623838    -0.11000
C2136       C  0.91556817  0.39499577  0.94496332     0.08300
C2137       C  0.84042894  0.33326424  0.97229852     0.09400
S2138       S  0.81745907  0.35197834  0.91351691    -0.25300
H2139       H  0.87173762  0.39430156  0.88600035     0.19600
S2140       S  0.95330447  0.41081505  0.95867673    -0.31000
H2141       H  0.89871539  0.36664813  0.98489761     0.10000
C2142       C  0.82830475  0.30371632  0.96167146     0.03200
C2143       C  0.80566358  0.28021030  0.97863270    -0.13300
C2144       C  0.79678006  0.28588684  0.50595444    -0.09000
C2145       C  0.80703857  0.31537640  0.01648405     0.06600
C2146       C  0.82999079  0.33876180  0.99977971    -0.14100
S2147       S  0.84197550  0.29594699  0.92670693    -0.31000
H2148       H  0.79654017  0.25745728  0.97069999     0.10900
S2149       S  0.79285772  0.32588428  0.54752139    -0.28100
H2150       H  0.83902373  0.36155696  0.00761249     0.08100
H2151       H  0.96590943  0.41165027  0.92993687     0.26500
H2152       H  0.82299195  0.26477333  0.92713122     0.21300
H2153       H  0.76305198  0.30380672  0.54197165     0.26600
H2154       H  0.80444891  0.34604741  0.94293114     0.15500
C2155       C  0.65369397  0.14299968  0.00100618    -0.11800
C2156       C  0.65896675  0.14039615  0.96991138     0.14700
C2157       C  0.68647088  0.16130123  0.95660079     0.01600
C2158       C  0.70819928  0.18409603  0.97469743    -0.16200
C2159       C  0.70311403  0.18721439  0.00591192    -0.11000
C2160       C  0.67242624  0.17148360  0.51719468     0.08300
C2161       C  0.63414228  0.11853278  0.95071469     0.09400
S2162       S  0.69455024  0.16130371  0.91619940    -0.25300
H2163       H  0.72926516  0.19973158  0.96400571     0.19600
S2164       S  0.66189100  0.17538761  0.55565679    -0.31000
H2165       H  0.63210488  0.12755886  0.01088716     0.10000
C2166       C  0.62947305  0.08978886  0.94512026     0.03200
C2167       C  0.60835288  0.07164364  0.92308411    -0.13300
C2168       C  0.59206009  0.08183950  0.90617080    -0.09000
C2169       C  0.59618749  0.11044297  0.91309004     0.06600
C2170       C  0.61674403  0.12807997  0.93553325    -0.14100
S2171       S  0.65159880  0.07699192  0.96474940    -0.31000
H2172       H  0.60511839  0.04969850  0.91848765     0.10900
S2173       S  0.57814158  0.12720714  0.89270971    -0.28100
H2174       H  0.62048610  0.15027852  0.93999073     0.08100
H2175       H  0.67449336  0.20653259  0.55334429     0.26500
H2176       H  0.63865321  0.04874329  0.95071069     0.21300
H2177       H  0.58725585  0.12288183  0.86361221     0.26600
H2178       H  0.67766000  0.13027658  0.91198887     0.15500
C2179       C  0.89455606  0.37522747  0.70897690    -0.11800
C2180       C  0.86457605  0.35877865  0.71803672     0.14700
C2181       C  0.85601617  0.36490805  0.74664134     0.01600
C2182       C  0.87769164  0.38589419  0.76628322    -0.16200
C2183       C  0.90791182  0.40184104  0.75780900    -0.11000
C2184       C  0.91631016  0.39669993  0.72842926     0.08300
C2185       C  0.84323601  0.33322810  0.69897296     0.09400
S2186       S  0.81778020  0.34657754  0.75947243    -0.25300
H2187       H  0.87078414  0.38995906  0.78841094     0.19600
S2188       S  0.95436466  0.41494498  0.71507903    -0.31000
H2189       H  0.90123105  0.37039393  0.68710770     0.10000
C2190       C  0.83328582  0.33720462  0.67018894     0.03200
C2191       C  0.81189819  0.31210959  0.65390839    -0.13300
C2192       C  0.80028118  0.28308421  0.66582334    -0.09000
C2193       C  0.81137621  0.27925141  0.69412478     0.06600
C2194       C  0.83240456  0.30428793  0.71043655    -0.14100
S2195       S  0.84670256  0.37422862  0.65492456    -0.31000
H2196       H  0.80345508  0.31517747  0.63228463     0.10900
S2197       S  0.80047584  0.24313326  0.71027085    -0.28100
H2198       H  0.84055049  0.30122237  0.73229334     0.08100
H2199       H  0.96656964  0.41370371  0.74342773     0.26500
H2200       H  0.83025029  0.36535095  0.62740217     0.21300
H2201       H  0.79811830  0.22931224  0.68174538     0.26600
H2202       H  0.80502025  0.34153057  0.72998766     0.15500
C2203       C  0.67169269  0.17215797  0.71315355    -0.11800
C2204       C  0.65574368  0.14338175  0.70078313     0.14700
C2205       C  0.66240827  0.13805854  0.67080368     0.01600
C2206       C  0.68603407  0.16140369  0.65461886    -0.16200
C2207       C  0.70264026  0.19021764  0.66734915    -0.11000
C2208       C  0.69446729  0.19566934  0.69666977     0.08300
C2209       C  0.63236169  0.11997696  0.72029065     0.09400
S2210       S  0.64189952  0.10223953  0.65199606    -0.25300
H2211       H  0.69160067  0.15691897  0.63198303     0.19600
S2212       S  0.71082507  0.23217958  0.71393881    -0.31000
H2213       H  0.66601451  0.17641781  0.73585990     0.10000
C2214       C  0.63687091  0.09879005  0.73574004     0.03200
C2215       C  0.61620063  0.08037116  0.75798850    -0.13300
C2216       C  0.59110682  0.08284432  0.76559178    -0.09000
C2217       C  0.58622915  0.10349257  0.74880818     0.06600
C2218       C  0.60690731  0.12170402  0.72651726    -0.14100
S2219       S  0.66987510  0.09645658  0.72854012    -0.31000
H2220       H  0.62030243  0.06462548  0.77020211     0.10900
S2221       S  0.55485400  0.10846325  0.75564403    -0.28100
H2222       H  0.60392438  0.13837503  0.71463821     0.08100
H2223       H  0.71157486  0.24673060  0.68632070     0.26500
H2224       H  0.66221217  0.07161717  0.74751205     0.21300
H2225       H  0.55565676  0.12177594  0.72715932     0.26600
H2226       H  0.61563254  0.09098471  0.66944420     0.15500
C2227       C  0.73117452  0.71367717  0.15002436     0.79800
N2228       N  0.72919639  0.71362580  0.11881003    -0.78500
C2229       C  0.75113165  0.73607892  0.10198545     0.82200
N2230       N  0.77515222  0.75852155  0.11644774    -0.78500
C2231       C  0.77774522  0.75849949  0.14748840     0.82300
N2232       N  0.75559546  0.73607354  0.16411909    -0.80200
C2233       C  0.72471994  0.71454238  0.02169673     0.79800
N2234       N  0.72639119  0.71360678  0.05288664    -0.78500
C2235       C  0.74898822  0.73673739  0.06834586     0.82200
N2236       N  0.77007282  0.76071621  0.05250989    -0.78500
C2237       C  0.76864496  0.76188238  0.02144881     0.82300
N2238       N  0.74612562  0.73863738  0.00620207    -0.80200
C2239       C  0.74954345  0.98753450  0.15145636     0.79800
N2240       N  0.74920589  0.98628182  0.12013325    -0.78500
C2241       C  0.72679667  0.98629011  0.10396523     0.82200
N2242       N  0.70441542  0.98711243  0.11927027    -0.78500
C2243       C  0.70442582  0.98837095  0.15044231     0.85100
N2244       N  0.72690729  0.98834336  0.16634286    -0.80200
C2245       C  0.74819655  0.98576457  0.02224638     0.79800
N2246       N  0.72422835  0.98398156  0.00770661    -0.78500
C2247       C  0.70175174  0.98367909  0.02386431     0.82200
N2248       N  0.70288960  0.98437192  0.05501787    -0.78500
C2249       C  0.72636389  0.98553435  0.07006134     0.82300
N2250       N  0.74903379  0.98616858  0.05362176    -0.80200
C2251       C  0.98107149  0.73360576  0.14861029     0.79800
N2252       N  0.98534298  0.73643049  0.11758244    -0.78500
C2253       C  0.98668383  0.71485718  0.10113864     0.82200
N2254       N  0.98414709  0.69058136  0.11587707    -0.78500
C2255       C  0.98014004  0.68756021  0.14675854     0.82300
N2256       N  0.97845319  0.70903252  0.16296648    -0.80200
C2257       C  0.99439391  0.74089586  0.01994693     0.79800
N2258       N  0.99099060  0.73966438  0.05115122    -0.78500
C2259       C  0.99070429  0.71712054  0.06753625     0.82200
N2260       N  0.99361185  0.69577113  0.05264972    -0.78500
C2261       C  0.99654315  0.69642898  0.02167228     0.82300
N2262       N  0.99691974  0.71901780  0.00547708    -0.80200
O2263       O  0.51112339  0.91142910  0.36893106    -0.88600
C2264       C  0.57058595  0.56170184  0.28814437     1.11400
O2265       O  0.98448154  0.94570458  0.33542376    -1.36400
O2266       O  0.57505966  0.54193498  0.36905474    -0.90100
O2267       O  0.95866738  0.88650595  0.37131631    -0.90800
O2268       O  0.95390343  0.94627412  0.40075220    -0.79600
O2269       O  0.54261541  0.97767149  0.36392221    -1.01700
C2270       C  0.98642949  0.53176232  0.39210977     1.21500
O2271       O  0.95471771  0.97764410  0.33667309    -1.36600
Mn2272     Mn  0.98521079  0.97772577  0.30262256     1.82100
O2273       O  0.98623177  0.50860986  0.40091447    -0.78700
O2274       O  0.55257151  0.56888359  0.36632296    -0.88100
C2275       C  0.98317587  0.53133856  0.28004596     1.12600
C2276       C  0.57190430  0.56356450  0.37775442     1.07300
O2277       O  0.95431608  0.94756413  0.27118566    -0.79600
O2278       O  0.51537384  0.50797636  0.33481292    -1.33300
O2279       O  0.92610010  0.91870896  0.30625889    -0.98800
C2280       C  0.89964572  0.97650049  0.38291748     1.06000
Mn2281     Mn  0.51856412  0.55033400  0.33358050     1.48600
O2282       O  0.89357280  0.95251730  0.36909220    -0.88000
Mn2283     Mn  0.94418512  0.90386568  0.33609970     1.49600
O2284       O  0.51078546  0.91173681  0.30011605    -0.91900
C2285       C  0.53911153  0.97755063  0.39156110     1.19200
C2286       C  0.98218777  0.88830187  0.29117058     1.11300
Mn2287     Mn  0.98581438  0.97695133  0.36958899     1.81000
O2288       O  0.98400171  0.53537029  0.30762956    -0.97000
Mn2289     Mn  0.52485191  0.94436707  0.33480053     1.49300
C2290       C  0.98335498  0.88999402  0.38082052     1.07800
Mn2291     Mn  0.95099706  0.51628830  0.33716027     1.49900
C2292       C  0.89934698  0.97977312  0.29360657     1.10700
O2293       O  0.92599370  0.91942406  0.36447022    -1.02800
O2294       O  0.55009298  0.56667277  0.29714145    -0.92500
C2295       C  0.93005301  0.92383833  0.39210906     1.22000
O2296       O  0.98537888  0.53505048  0.36466298    -1.03200
O2297       O  0.57487685  0.54197488  0.30044444    -0.90600
O2298       O  0.91800713  0.50196892  0.30335314    -0.90200
O2299       O  0.95812012  0.88464963  0.30263540    -0.90300
Mn2300     Mn  0.55683725  0.50947715  0.33452928     1.47900
O2301       O  0.98411420  0.50883301  0.27111463    -0.78700
C2302       C  0.93138595  0.92384113  0.27880041     1.15000
O2303       O  0.51566015  0.97640562  0.40068324    -0.77500
O2304       O  0.51486015  0.97824201  0.27075252    -0.77100
Mn2305     Mn  0.91195286  0.93817154  0.33506610     1.51100
O2306       O  0.91870441  0.50002789  0.37270134    -0.89400
O2307       O  0.54265164  0.97843872  0.30637289    -0.97000
O2308       O  0.89547102  0.95415812  0.30034793    -0.92000
C2309       C  0.53821533  0.97869192  0.27887383     1.12800
C2310       C  0.98167318  0.59684520  0.42567442    -0.11800
C2311       C  0.99929383  0.60337988  0.45196537     0.14700
C2312       C  0.01233879  0.58595373  0.45908307     0.01600
C2313       C  0.00692790  0.56194200  0.43995002    -0.16200
C2314       C  0.98953091  0.55560067  0.41323292    -0.11000
C2315       C  0.48076047  0.57624726  0.40632898     0.08300
C2316       C  0.00154340  0.62739542  0.47207988     0.09400
S2317       S  0.03678126  0.59392203  0.49151753    -0.25300
H2318       H  0.01727230  0.54884530  0.44533091     0.19600
S2319       S  0.45672648  0.56996465  0.37366272    -0.31000
H2320       H  0.47744359  0.61395723  0.42145185     0.10000
C2321       C  0.52489427  0.66084365  0.46206099     0.03200
C2322       C  0.51470913  0.67930933  0.97547148    -0.13300
C2323       C  0.99967017  0.67293468  0.00572270    -0.09000
C2324       C  0.98101922  0.64044387  0.51579615     0.06600
C2325       C  0.98465224  0.61941829  0.49916158    -0.14100
S2326       S  0.54729972  0.67093636  0.42753453    -0.31000
H2327       H  0.52402910  0.70143627  0.96572521     0.10900
S2328       S  0.95542229  0.62654241  0.54777654    -0.28100
H2329       H  0.97266326  0.59621334  0.50630529     0.08100
H2330       H  0.44866594  0.59134826  0.38095202     0.26500
H2331       H  0.54037454  0.69558446  0.91982593     0.21300
H2332       H  0.94138231  0.64282738  0.54009775     0.26600
H2333       H  0.04992199  0.62342685  0.99603539     0.15500
C2334       C  0.96091570  0.82476787  0.43683009    -0.11800
C2335       C  0.98844833  0.83247068  0.45008186     0.14700
C2336       C  0.51644440  0.86390568  0.44422981     0.01600
C2337       C  0.51335673  0.88178372  0.42204244    -0.16200
C2338       C  0.98366295  0.87066542  0.40631512    -0.11000
C2339       C  0.95806064  0.84356486  0.41568036     0.08300
C2340       C  0.99053101  0.80999299  0.46964361     0.09400
S2341       S  0.54997753  0.88069643  0.46702403    -0.25300
H2342       H  0.53145463  0.90454137  0.41899403     0.19600
S2343       S  0.92123513  0.83045597  0.40067871    -0.31000
H2344       H  0.94146252  0.80351365  0.44259519     0.10000
C2345       C  0.97493281  0.79976423  0.49769103     0.03200
C2346       C  0.97706883  0.77752395  0.01219775    -0.13300
C2347       C  0.99298854  0.76450295  0.50357730    -0.09000
C2348       C  0.00951508  0.77568814  0.47590892     0.06600
C2349       C  0.00773114  0.79791602  0.45920390    -0.14100
S2350       S  0.45974074  0.81936675  0.01497192    -0.31000
H2351       H  0.96490331  0.76959056  0.03360996     0.10900
S2352       S  0.03409947  0.76307281  0.46202884    -0.28100
H2353       H  0.01970999  0.80595737  0.43770504     0.08100
H2354       H  0.92033923  0.85547131  0.41152291     0.26500
H2355       H  0.45243163  0.80340832  0.04286253     0.21300
H2356       H  0.04647513  0.78314504  0.43725765     0.26600
H2357       H  0.53697273  0.86317158  0.49341869     0.15500
C2358       C  0.49079580  0.62309012  0.17112354    -0.11800
C2359       C  0.97031450  0.61042933  0.19489814     0.14700
C2360       C  0.94964718  0.62018656  0.19914621     0.01600
C2361       C  0.95357281  0.64551031  0.18342432    -0.16200
C2362       C  0.97719895  0.66091066  0.16261315    -0.11000
C2363       C  0.49626160  0.64855698  0.15450089     0.08300
C2364       C  0.97169093  0.58885817  0.21631813     0.09400
S2365       S  0.91792563  0.60122435  0.22442308    -0.25300
H2366       H  0.93783946  0.65307512  0.18721503     0.19600
S2367       S  0.52413031  0.66109371  0.12465335    -0.31000
H2368       H  0.50318422  0.61207456  0.16539330     0.10000
C2369       C  0.96707372  0.56091857  0.20672110     0.03200
C2370       C  0.97123077  0.54272308  0.22778434    -0.13300
C2371       C  0.97987090  0.55184455  0.25839864    -0.09000
C2372       C  0.48738582  0.58145005  0.26748032     0.06600
C2373       C  0.48424298  0.60037136  0.24682006    -0.14100
S2374       S  0.95518687  0.54820021  0.16789904    -0.31000
H2375       H  0.96751933  0.52118916  0.22039623     0.10900
S2376       S  0.50533205  0.59697965  0.30400277    -0.28100
H2377       H  0.49202158  0.62332413  0.25317374     0.08100
H2378       H  0.53753288  0.69151314  0.13237330     0.26500
H2379       H  0.95213596  0.51983989  0.17147922     0.21300
H2380       H  0.50873237  0.62548496  0.30053619     0.26600
H2381       H  0.91501080  0.57286720  0.22151079     0.15500
C2382       C  0.48099712  0.80418596  0.17381035    -0.11800
C2383       C  0.98181982  0.80233320  0.20545319     0.14700
C2384       C  0.99192894  0.78353344  0.21681581     0.01600
C2385       C  0.99150150  0.76167797  0.19768301    -0.16200
C2386       C  0.98084061  0.75759440  0.16728313    -0.11000
C2387       C  0.48047161  0.78208994  0.15467661     0.08300
C2388       C  0.98180260  0.82580081  0.22485866     0.09400
S2389       S  0.00591391  0.78636613  0.25542852    -0.25300
H2390       H  0.99972846  0.74773233  0.20674551     0.19600
S2391       S  0.46320345  0.77592000  0.11722484    -0.31000
H2392       H  0.47147663  0.81736025  0.16587724     0.10000
C2393       C  0.51623395  0.85941057  0.22983629     0.03200
C2394       C  0.51363223  0.87861729  0.25076343    -0.13300
C2395       C  0.98075966  0.86710296  0.26689075    -0.09000
C2396       C  0.95412137  0.84005092  0.25937506     0.06600
C2397       C  0.95508662  0.81997298  0.23860826    -0.14100
S2398       S  0.55154448  0.87052769  0.21157609    -0.31000
H2399       H  0.53313547  0.89997660  0.25585176     0.10900
S2400       S  0.91824403  0.82840232  0.27632325    -0.28100
H2401       H  0.93484644  0.79908793  0.23370581     0.08100
H2402       H  0.46144533  0.80209224  0.11639508     0.26500
H2403       H  0.56784916  0.89832882  0.22626280     0.21300
H2404       H  0.91746418  0.85332793  0.26507379     0.26600
H2405       H  0.98855128  0.79682471  0.26939336     0.15500
C2406       C  0.79976109  0.99022984  0.45658201    -0.11800
C2407       C  0.81415928  0.97585633  0.46881067     0.14700
C2408       C  0.80725572  0.96442770  0.49911008     0.01600
C2409       C  0.78577510  0.96991393  0.01431130    -0.16200
C2410       C  0.77045758  0.98065098  0.50345128    -0.11000
C2411       C  0.77851561  0.99318842  0.47353698     0.08300
C2412       C  0.83618450  0.97351103  0.44899685     0.09400
S2413       S  0.82076533  0.94412635  0.01124642    -0.25300
H2414       H  0.77948285  0.95894296  0.03652524     0.19600
S2415       S  0.76252179  0.51418616  0.45342256    -0.31000
H2416       H  0.80239996  0.49723231  0.43023702     0.10000
C2417       C  0.82683702  0.95367920  0.42388653     0.03200
C2418       C  0.84808862  0.95453515  0.40332608    -0.13300
C2419       C  0.87875563  0.97452139  0.40753850    -0.09000
C2420       C  0.88806347  0.99248996  0.43430356     0.06600
C2421       C  0.86676436  0.99237590  0.45425455    -0.14100
S2422       S  0.78772623  0.92735576  0.41793169    -0.31000
H2423       H  0.84066857  0.94016157  0.38332917     0.10900
S2424       S  0.92377082  0.51166466  0.44364780    -0.28100
H2425       H  0.87150155  0.50474171  0.47175273     0.08100
H2426       H  0.76391307  0.52981396  0.48040021     0.26500
H2427       H  0.79143846  0.91137460  0.39390393     0.21300
H2428       H  0.93186925  0.49177534  0.43113075     0.26600
H2429       H  0.83341152  0.93726809  0.49061304     0.15500
C2430       C  0.61187701  0.98762038  0.42394041    -0.11800
C2431       C  0.60363659  0.97734280  0.45410555     0.14700
C2432       C  0.57460081  0.96881408  0.46434204     0.01600
C2433       C  0.55438087  0.97014455  0.44389889    -0.16200
C2434       C  0.56212277  0.97892955  0.41303972    -0.11000
C2435       C  0.59157824  0.98798113  0.40311381     0.08300
C2436       C  0.62633030  0.97596753  0.47366156     0.09400
S2437       S  0.56168793  0.95529126  0.50274761    -0.25300
H2438       H  0.53204906  0.96315079  0.45189167     0.19600
S2439       S  0.60431229  0.49854895  0.36442897    -0.31000
H2440       H  0.63271046  0.49113507  0.41535766     0.10000
C2441       C  0.63776175  0.95729390  0.46565435     0.03200
C2442       C  0.66179135  0.95915224  0.48217540    -0.13300
C2443       C  0.67576112  0.98128805  0.00740671    -0.09000
C2444       C  0.66317115  0.99919081  0.01458643     0.06600
C2445       C  0.63912772  0.99597933  0.49822929    -0.14100
S2446       S  0.62197997  0.93123702  0.43408219    -0.31000
H2447       H  0.67047853  0.94475710  0.47610101     0.10900
S2448       S  0.68059493  0.52152109  0.04036353    -0.28100
H2449       H  0.62774818  0.50668491  0.50295061     0.08100
H2450       H  0.58683301  0.47021174  0.35096524     0.26500
H2451       H  0.63937763  0.91771700  0.43782460     0.21300
H2452       H  0.70942971  0.52653784  0.03471710     0.26600
H2453       H  0.57987360  0.94281663  0.50756150     0.15500
C2454       C  0.82366201  0.99490871  0.17705327    -0.11800
C2455       C  0.81619378  0.98233694  0.20658614     0.14700
C2456       C  0.78706867  0.97182580  0.21780465     0.01600
C2457       C  0.76619726  0.97409587  0.19944039    -0.16200
C2458       C  0.77340557  0.98663943  0.16974403    -0.11000
C2459       C  0.80286634  0.99759797  0.15874908     0.08300
C2460       C  0.83973186  0.98302025  0.22650811     0.09400
S2461       S  0.77522732  0.95569596  0.25563030    -0.25300
H2462       H  0.74390685  0.96559912  0.20846863     0.19600
S2463       S  0.81619359  0.01723606  0.12277700    -0.31000
H2464       H  0.84623462  0.00375882  0.16869242     0.10000
C2465       C  0.84878414  0.96167005  0.22392643     0.03200
C2466       C  0.86862228  0.96132717  0.24574152    -0.13300
C2467       C  0.87960744  0.98192009  0.27018917    -0.09000
C2468       C  0.87078450  0.00367433  0.27212470     0.06600
C2469       C  0.85143334  0.00418819  0.25012684    -0.14100
S2470       S  0.83405912  0.93410809  0.19367720    -0.31000
H2471       H  0.87535395  0.94474550  0.24395671     0.10900
S2472       S  0.89066408  0.53588353  0.28660721    -0.28100
H2473       H  0.84941694  0.51977633  0.23851168     0.08100
H2474       H  0.80189700  0.03394925  0.12644755     0.26500
H2475       H  0.84955350  0.91938305  0.20183488     0.21300
H2476       H  0.88163735  0.51951974  0.31427201     0.26600
H2477       H  0.79391170  0.94348169  0.25762195     0.15500
C2478       C  0.65932549  0.00283104  0.20984770    -0.11800
C2479       C  0.63009601  0.98310340  0.20004452     0.14700
C2480       C  0.62549643  0.96659328  0.17273445     0.01600
C2481       C  0.65016775  0.96959264  0.15645222    -0.16200
C2482       C  0.67944948  0.98846954  0.16691038    -0.11000
C2483       C  0.68393850  0.00597180  0.19347531     0.08300
C2484       C  0.60517784  0.98030068  0.21914163     0.09400
S2485       S  0.58894094  0.94092410  0.15763275    -0.25300
H2486       H  0.64639027  0.95625148  0.13596406     0.19600
S2487       S  0.71694767  0.52614746  0.20247961    -0.31000
H2488       H  0.66037703  0.51173730  0.22628635     0.10000
C2489       C  0.59914525  0.96644965  0.24819242     0.03200
C2490       C  0.57688633  0.96600043  0.26665219    -0.13300
C2491       C  0.56006557  0.97883997  0.25676257    -0.09000
C2492       C  0.56557459  0.99194322  0.22711128     0.06600
C2493       C  0.58802460  0.99248304  0.20867844    -0.14100
S2494       S  0.61964097  0.94906269  0.26177055    -0.31000
H2495       H  0.57261973  0.95558585  0.28910771     0.10900
S2496       S  0.54586916  0.00938164  0.21179523    -0.28100
H2497       H  0.59269560  0.00314023  0.18630464     0.08100
H2498       H  0.72889770  0.53188711  0.17253930     0.26500
H2499       H  0.60302246  0.93661607  0.28881598     0.21300
H2500       H  0.54644459  0.02390264  0.23924460     0.26600
H2501       H  0.57290508  0.93515613  0.18522372     0.15500
C2502       C  0.88866985  0.87682845  0.46268466    -0.11800
C2503       C  0.85960059  0.86028126  0.45097570     0.14700
C2504       C  0.85364938  0.86644665  0.42106016     0.01600
C2505       C  0.87705153  0.88734392  0.40285842    -0.16200
C2506       C  0.90653005  0.90317576  0.41385794    -0.11000
C2507       C  0.91220963  0.89802943  0.44446555     0.08300
C2508       C  0.83631665  0.83533346  0.46940689     0.09400
S2509       S  0.81675764  0.84805390  0.40449332    -0.25300
H2510       H  0.87205044  0.89125962  0.37970534     0.19600
S2511       S  0.94904982  0.91579027  0.46085931    -0.31000
H2512       H  0.89329821  0.87218070  0.48569709     0.10000
C2513       C  0.82482379  0.80537751  0.46038839     0.03200
C2514       C  0.80127649  0.78245205  0.47704785    -0.13300
C2515       C  0.79236811  0.78724243  0.00401938    -0.09000
C2516       C  0.80127263  0.81877955  0.51232407     0.06600
C2517       C  0.82470838  0.84168539  0.49554066    -0.14100
S2518       S  0.84089185  0.79622748  0.42833159    -0.31000
H2519       H  0.79262759  0.75943886  0.47031098     0.10900
S2520       S  0.79084257  0.82828752  0.04592519    -0.28100
H2521       H  0.83342626  0.86470449  0.50238148     0.08100
H2522       H  0.96236398  0.91131790  0.43480994     0.26500
H2523       H  0.82078237  0.76525851  0.42855468     0.21300
H2524       H  0.76077841  0.80633164  0.04151917     0.26600
H2525       H  0.80114004  0.84252167  0.43239335     0.15500
C2526       C  0.64809625  0.64798525  0.49775708    -0.11800
C2527       C  0.65574269  0.64173272  0.46891558     0.14700
C2528       C  0.68542427  0.65876204  0.45847471     0.01600
C2529       C  0.70647940  0.68230924  0.47640009    -0.16200
C2530       C  0.69890213  0.68936770  0.50493493    -0.11000
C2531       C  0.67154517  0.67071127  0.01578840     0.08300
C2532       C  0.63186766  0.62058648  0.44813921     0.09400
S2533       S  0.69761168  0.65246100  0.42181178    -0.25300
H2534       H  0.72910536  0.69532529  0.46784400     0.19600
S2535       S  0.65892382  0.67762268  0.05178078    -0.31000
H2536       H  0.62517267  0.63526640  0.50555252     0.10000
C2537       C  0.62185857  0.58980366  0.44809720     0.03200
C2538       C  0.60194616  0.57157457  0.42515106    -0.13300
C2539       C  0.59187886  0.58357383  0.40221098    -0.09000
C2540       C  0.60162965  0.61447916  0.40294354     0.06600
C2541       C  0.62106924  0.63239987  0.42606884    -0.14100
S2542       S  0.63549210  0.57407112  0.47634908    -0.31000
H2543       H  0.59442614  0.54794923  0.42487975     0.10900
S2544       S  0.59224596  0.63314090  0.37383313    -0.28100
H2545       H  0.62904751  0.65615268  0.42600555     0.08100
H2546       H  0.67346161  0.70876102  0.04754777     0.26500
H2547       H  0.61942256  0.54443347  0.46570929     0.21300
H2548       H  0.59711702  0.61865465  0.34906292     0.26600
H2549       H  0.67720560  0.62165909  0.42031719     0.15500
C2550       C  0.89827553  0.87638296  0.20657980    -0.11800
C2551       C  0.86811849  0.85965461  0.21493081     0.14700
C2552       C  0.85885331  0.86550054  0.24327426     0.01600
C2553       C  0.87996619  0.88661579  0.26329786    -0.16200
C2554       C  0.91036855  0.90282526  0.25557815    -0.11000
C2555       C  0.91950236  0.89783749  0.22650370     0.08300
C2556       C  0.84727667  0.83405384  0.19554734     0.09400
S2557       S  0.82040111  0.84640150  0.25543596    -0.25300
H2558       H  0.87249247  0.89046683  0.28518635     0.19600
S2559       S  0.95787469  0.91615255  0.21418235    -0.31000
H2560       H  0.90551011  0.87173923  0.18496097     0.10000
C2561       C  0.83692557  0.83794105  0.16695809     0.03200
C2562       C  0.81492041  0.81281794  0.15115825    -0.13300
C2563       C  0.80347622  0.78381018  0.16311826    -0.09000
C2564       C  0.81586419  0.78002942  0.19052335     0.06600
C2565       C  0.83705338  0.80510768  0.20669009    -0.14100
S2566       S  0.85067683  0.87487598  0.15130064    -0.31000
H2567       H  0.80587548  0.81588245  0.12995672     0.10900
S2568       S  0.80666692  0.74393073  0.20541792    -0.28100
H2569       H  0.84580377  0.80207551  0.22815125     0.08100
H2570       H  0.96941427  0.91505260  0.24299311     0.26500
H2571       H  0.83506584  0.86578141  0.12328344     0.21300
H2572       H  0.80337749  0.73074225  0.17631814     0.26600
H2573       H  0.80814637  0.84170726  0.22573137     0.15500
C2574       C  0.67528865  0.67156906  0.21403728    -0.11800
C2575       C  0.66059915  0.64241097  0.20247685     0.14700
C2576       C  0.66895667  0.63665906  0.17349425     0.01600
C2577       C  0.69190400  0.66032603  0.15689414    -0.16200
C2578       C  0.70673602  0.68966904  0.16845736    -0.11000
C2579       C  0.69790863  0.69520400  0.19738026     0.08300
C2580       C  0.63665264  0.61902539  0.22159527     0.09400
S2581       S  0.65186268  0.59992021  0.15639619    -0.25300
H2582       H  0.69843347  0.65570698  0.13483787     0.19600
S2583       S  0.71331822  0.73195084  0.21384964    -0.31000
H2584       H  0.66868874  0.67602463  0.23615294     0.10000
C2585       C  0.64229221  0.60139175  0.24191069     0.03200
C2586       C  0.62002118  0.58237333  0.26258576    -0.13300
C2587       C  0.59181959  0.58017555  0.26324623    -0.09000
C2588       C  0.58578237  0.59639167  0.24098404     0.06600
C2589       C  0.60837660  0.61607713  0.22104507    -0.14100
S2590       S  0.67825491  0.60396522  0.24230426    -0.31000
H2591       H  0.62510572  0.56990267  0.27900856     0.10900
S2592       S  0.54972474  0.59222409  0.23546519    -0.28100
H2593       H  0.60388312  0.62919353  0.20482227     0.08100
H2594       H  0.71401408  0.74590865  0.18584086     0.26500
H2595       H  0.67060935  0.58024274  0.26291668     0.21300
H2596       H  0.53456890  0.56110550  0.23946098     0.26600
H2597       H  0.62732481  0.58502330  0.17620230     0.15500
C2598       C  0.72864393  0.71769212  0.64990953     0.79800
N2599       N  0.72697474  0.71688860  0.61870813    -0.78500
C2600       C  0.74897074  0.73904571  0.60170944     0.82200
N2601       N  0.77285128  0.76186589  0.61599291    -0.78500
C2602       C  0.77509170  0.76247471  0.64710943     0.82300
N2603       N  0.75277509  0.74045377  0.66391019    -0.80200
C2604       C  0.72255652  0.71544118  0.52189537     0.79800
N2605       N  0.72438670  0.71524861  0.55309258    -0.78500
C2606       C  0.74682931  0.73891480  0.56808547     0.82200
N2607       N  0.76754663  0.76272751  0.55181734    -0.78500
C2608       C  0.76594730  0.76325191  0.52073417     0.82300
N2609       N  0.74363036  0.73941289  0.50588264    -0.80200
C2610       C  0.74973995  0.98689014  0.65003242     0.79800
N2611       N  0.74864100  0.98457968  0.61882769    -0.78500
C2612       C  0.72627180  0.98475164  0.60284981     0.82200
N2613       N  0.70463174  0.98681337  0.61823204    -0.78500
C2614       C  0.70527178  0.98902725  0.64936339     0.85100
N2615       N  0.72775036  0.98877980  0.66509649    -0.80200
C2616       C  0.74605217  0.98069864  0.52148707     0.79800
N2617       N  0.72220935  0.97920066  0.50682587    -0.78500
C2618       C  0.70032718  0.98025874  0.52287261     0.82200
N2619       N  0.70188406  0.98187775  0.55398814    -0.78500
C2620       C  0.72514389  0.98270506  0.56908506     0.82300
N2621       N  0.74724778  0.98215641  0.55279495    -0.80200
C2622       C  0.97941965  0.73216130  0.64962836     0.79800
N2623       N  0.98340806  0.73458054  0.61859230    -0.78500
C2624       C  0.98364504  0.71241033  0.60223832     0.82200
N2625       N  0.98028286  0.68782254  0.61713316    -0.78500
C2626       C  0.97639346  0.68514202  0.64811101     0.82300
N2627       N  0.97595533  0.70735405  0.66425000    -0.80200
C2628       C  0.99225897  0.73949389  0.52139670     0.79800
N2629       N  0.98870268  0.73787233  0.55257378    -0.78500
C2630       C  0.98766143  0.71477778  0.56860487     0.82200
N2631       N  0.99004304  0.69329212  0.55336242    -0.78500
C2632       C  0.99294581  0.69421764  0.52234492     0.82300
N2633       N  0.99405786  0.71738846  0.50655749    -0.80200
O2634       O  0.50951011  0.91037229  0.86854391    -0.88600
C2635       C  0.57079759  0.56440892  0.78983250     1.11400
O2636       O  0.98407370  0.94624083  0.83436649    -1.36400
O2637       O  0.57495139  0.54334221  0.86938599    -0.90100
O2638       O  0.95848273  0.88581751  0.86830757    -0.90800
O2639       O  0.95345813  0.94565907  0.89975662    -0.79600
O2640       O  0.54303149  0.97648458  0.86331086    -1.01700
C2641       C  0.98835667  0.53250681  0.89351712     1.21500
O2642       O  0.95384631  0.97779046  0.83616826    -1.36600
Mn2643     Mn  0.98467112  0.97856293  0.80201721     1.82100
O2644       O  0.98767664  0.50914095  0.90249994    -0.78700
O2645       O  0.55060269  0.56848389  0.86822699    -0.88100
C2646       C  0.98197752  0.53050205  0.78165532     1.12600
C2647       C  0.57060087  0.56392027  0.87914504     1.07300
O2648       O  0.95398465  0.94882420  0.77035043    -0.79600
O2649       O  0.51584449  0.50825424  0.83492924    -1.33300
O2650       O  0.92590547  0.91970226  0.80529692    -0.98800
C2651       C  0.89811842  0.97607839  0.88208766     1.06000
Mn2652     Mn  0.51733651  0.54983050  0.83477116     1.48600
O2653       O  0.89245614  0.95179350  0.86916130    -0.88000
Mn2654     Mn  0.94406229  0.90422211  0.83410109     1.49600
O2655       O  0.50906253  0.91086873  0.79942600    -0.91900
C2656       C  0.53975977  0.97641596  0.89097061     1.19200
C2657       C  0.98282492  0.89011398  0.78857652     1.11300
Mn2658     Mn  0.98496585  0.97700105  0.86892600     1.81000
O2659       O  0.98389142  0.53511752  0.80917730    -0.97000
Mn2660     Mn  0.52427870  0.94335845  0.83420666     1.49300
C2661       C  0.98314548  0.88948087  0.87812207     1.07800
Mn2662     Mn  0.95153166  0.51659528  0.83942002     1.49900
C2663       C  0.89856409  0.97971385  0.79303798     1.10700
O2664       O  0.92562141  0.91887059  0.86336445    -1.02800
O2665       O  0.54960850  0.56820950  0.79908591    -0.92500
C2666       C  0.93000222  0.92287001  0.89100941     1.22000
O2667       O  0.98662851  0.53520846  0.86606458    -1.03200
O2668       O  0.57554820  0.54457965  0.80108244    -0.90600
O2669       O  0.91795814  0.50222818  0.80629978    -0.90200
O2670       O  0.95851160  0.88630585  0.79959368    -0.90300
Mn2671     Mn  0.55802100  0.51133234  0.83452812     1.47900
O2672       O  0.98255148  0.50782584  0.77259655    -0.78700
C2673       C  0.93094059  0.92522243  0.77789602     1.15000
O2674       O  0.51683498  0.97615052  0.90038976    -0.77500
O2675       O  0.51566515  0.97890652  0.77060775    -0.77100
Mn2676     Mn  0.91123693  0.93807973  0.83471874     1.51100
O2677       O  0.91972372  0.50120025  0.87551832    -0.89400
O2678       O  0.54310642  0.97740977  0.80566234    -0.97000
O2679       O  0.89429938  0.95412269  0.80056599    -0.92000
C2680       C  0.53858667  0.97827250  0.77824701     1.12800
C2681       C  0.98910646  0.60130567  0.92530368    -0.11800
C2682       C  0.00475776  0.60601904  0.95279112     0.14700
C2683       C  0.01527562  0.58662908  0.96092685     0.01600
C2684       C  0.00897322  0.56228350  0.94183004    -0.16200
C2685       C  0.99297477  0.55730912  0.91425826    -0.11000
C2686       C  0.47581606  0.57182504  0.90731270     0.08300
C2687       C  0.00661571  0.62961353  0.97340775     0.09400
S2688       S  0.03729386  0.59224996  0.99493354    -0.25300
H2689       H  0.01728189  0.54760704  0.94814610     0.19600
S2690       S  0.45129826  0.56446510  0.87485638    -0.31000
H2691       H  0.47019036  0.60803975  0.92267212     0.10000
C2692       C  0.51643136  0.65716663  0.95870930     0.03200
C2693       C  0.52288081  0.68280334  0.47898713    -0.13300
C2694       C  0.99555880  0.67061247  0.50580159    -0.09000
C2695       C  0.98216324  0.64231526  0.01357702     0.06600
C2696       C  0.98606068  0.62113548  0.99757131    -0.14100
S2697       S  0.53390224  0.66581167  0.92120970    -0.31000
H2698       H  0.53496514  0.70578076  0.47124852     0.10900
S2699       S  0.95285737  0.62841817  0.04198418    -0.28100
H2700       H  0.97168825  0.59763580  0.00275769     0.08100
H2701       H  0.44791532  0.58957644  0.87786931     0.26500
H2702       H  0.55777324  0.70176183  0.42881473     0.21300
H2703       H  0.94287832  0.64820127  0.03404210     0.26600
H2704       H  0.04768714  0.62484353  0.49194924     0.15500
C2705       C  0.96085669  0.82253728  0.93171640    -0.11800
C2706       C  0.98773580  0.83144144  0.94710529     0.14700
C2707       C  0.51407607  0.86331439  0.94451426     0.01600
C2708       C  0.51137087  0.88114717  0.92199313    -0.16200
C2709       C  0.98324351  0.86955189  0.90305125    -0.11000
C2710       C  0.95813605  0.84122616  0.91027262     0.08300
C2711       C  0.99020698  0.80936345  0.96688492     0.09400
S2712       S  0.54904383  0.87856979  0.96470080    -0.25300
H2713       H  0.53035415  0.90312892  0.91758534     0.19600
S2714       S  0.92238739  0.82653219  0.89194602    -0.31000
H2715       H  0.94191076  0.80049215  0.93603955     0.10000
C2716       C  0.97495688  0.79944627  0.99512102     0.03200
C2717       C  0.97625315  0.77716439  0.51427978    -0.13300
C2718       C  0.99421189  0.76522031  0.00168543    -0.09000
C2719       C  0.01035963  0.77614369  0.97377460     0.06600
C2720       C  0.00785357  0.79773770  0.95667131    -0.14100
S2721       S  0.45004850  0.80829952  0.50419637    -0.31000
H2722       H  0.96374265  0.76895695  0.53547039     0.10900
S2723       S  0.03527782  0.76393393  0.95992923    -0.28100
H2724       H  0.01961088  0.80561113  0.93502937     0.08100
H2725       H  0.91779018  0.84903524  0.90402624     0.26500
H2726       H  0.43858498  0.78922106  0.52983503     0.21300
H2727       H  0.04975718  0.78623610  0.93743784     0.26600
H2728       H  0.53748527  0.86132185  0.99151884     0.15500
C2729       C  0.49229528  0.62467058  0.67313341    -0.11800
C2730       C  0.96688661  0.60839576  0.69701809     0.14700
C2731       C  0.94467250  0.61637723  0.69898965     0.01600
C2732       C  0.94825729  0.64141839  0.68279113    -0.16200
C2733       C  0.97342563  0.65859585  0.66427346    -0.11000
C2734       C  0.49679340  0.64969898  0.65632832     0.08300
C2735       C  0.96816157  0.58709241  0.71892406     0.09400
S2736       S  0.91197804  0.59634109  0.72281529    -0.25300
H2737       H  0.93130316  0.64762807  0.68473320     0.19600
S2738       S  0.52507163  0.66324598  0.62683612    -0.31000
H2739       H  0.50576235  0.61470842  0.66789628     0.10000
C2740       C  0.95714630  0.55679276  0.71186972     0.03200
C2741       C  0.96203484  0.53878031  0.73254133    -0.13300
C2742       C  0.97738951  0.55038984  0.76039563    -0.09000
C2743       C  0.48516771  0.58024740  0.76937743     0.06600
C2744       C  0.48252015  0.59952146  0.74877990    -0.14100
S2745       S  0.93654973  0.54105386  0.67682789    -0.31000
H2746       H  0.95372936  0.51554022  0.72706998     0.10900
S2747       S  0.49974783  0.59444936  0.80737672    -0.28100
H2748       H  0.48864955  0.62185396  0.75603002     0.08100
H2749       H  0.53724769  0.69354503  0.63451466     0.26500
H2750       H  0.92704052  0.51108645  0.68394123     0.21300
H2751       H  0.50718968  0.62422880  0.80253859     0.26600
H2752       H  0.91080735  0.56871858  0.72199772     0.15500
C2753       C  0.48341808  0.80744636  0.67139325    -0.11800
C2754       C  0.98427272  0.80431934  0.70376035     0.14700
C2755       C  0.99573930  0.78658124  0.71500091     0.01600
C2756       C  0.99400538  0.76349013  0.69679916    -0.16200
C2757       C  0.98029943  0.75691593  0.66772330    -0.11000
C2758       C  0.48276691  0.78497705  0.65271568     0.08300
C2759       C  0.98401460  0.82794478  0.72279964     0.09400
S2760       S  0.01240270  0.79194358  0.75257206    -0.25300
H2761       H  0.00333431  0.75040067  0.70557475     0.19600
S2762       S  0.47350036  0.78415230  0.61245392    -0.31000
H2763       H  0.47881808  0.82387796  0.66156710     0.10000
C2764       C  0.51029518  0.86077150  0.72439568     0.03200
C2765       C  0.50831814  0.88001079  0.74576449    -0.13300
C2766       C  0.98190554  0.86932346  0.76402583    -0.09000
C2767       C  0.95558953  0.84201806  0.75648940     0.06600
C2768       C  0.95712268  0.82181676  0.73636716    -0.14100
S2769       S  0.54329896  0.87379459  0.70103364    -0.31000
H2770       H  0.52675239  0.90265142  0.74799918     0.10900
S2771       S  0.91931254  0.83039172  0.77234624    -0.28100
H2772       H  0.93710920  0.80067223  0.73164946     0.08100
H2773       H  0.46823103  0.80820067  0.61294816     0.26500
H2774       H  0.55985384  0.90195952  0.71496162     0.21300
H2775       H  0.91892534  0.85541159  0.76064907     0.26600
H2776       H  0.99360159  0.80021125  0.76734877     0.15500
C2777       C  0.80120563  0.99658699  0.95630469    -0.11800
C2778       C  0.81362288  0.97958174  0.96643664     0.14700
C2779       C  0.80602522  0.96637455  0.99596478     0.01600
C2780       C  0.78561449  0.96700745  0.51603454    -0.16200
C2781       C  0.77246306  0.98606196  0.00375072    -0.11000
C2782       C  0.78114178  0.00029335  0.97462498     0.08300
C2783       C  0.83497207  0.97683040  0.94587199     0.09400
S2784       S  0.82477566  0.94598261  0.51744242    -0.25300
H2785       H  0.78002008  0.95753144  0.53896797     0.19600
S2786       S  0.76532288  0.51456161  0.96472093    -0.31000
H2787       H  0.80675488  0.50047607  0.93952789     0.10000
C2788       C  0.82526709  0.95906146  0.91913335     0.03200
C2789       C  0.84631007  0.95830684  0.89941989    -0.13300
C2790       C  0.87699200  0.97490872  0.90586139    -0.09000
C2791       C  0.88641246  0.99138655  0.93356547     0.06600
C2792       C  0.86545392  0.99257286  0.95293809    -0.14100
S2793       S  0.78605165  0.93738088  0.91006315    -0.31000
H2794       H  0.83890576  0.94549463  0.87834536     0.10900
S2795       S  0.92196494  0.52453514  0.93910376    -0.28100
H2796       H  0.86833134  0.51030876  0.96892125     0.08100
H2797       H  0.76301492  0.52410870  0.99435906     0.26500
H2798       H  0.78883691  0.92166240  0.88515773     0.21300
H2799       H  0.93454066  0.50649634  0.93363411     0.26600
H2800       H  0.82444433  0.93344018  0.98285516     0.15500
C2801       C  0.61175634  0.98440396  0.92278789    -0.11800
C2802       C  0.60379337  0.97535480  0.95331768     0.14700
C2803       C  0.57498223  0.96748270  0.96364792     0.01600
C2804       C  0.55487124  0.96887046  0.94317566    -0.16200
C2805       C  0.56246720  0.97695384  0.91216505    -0.11000
C2806       C  0.59150385  0.98473894  0.90191522     0.08300
C2807       C  0.62672468  0.97523790  0.97347710     0.09400
S2808       S  0.56228466  0.95470552  0.00227123    -0.25300
H2809       H  0.53276654  0.96261870  0.95133503     0.19600
S2810       S  0.60600632  0.50181377  0.86325731    -0.31000
H2811       H  0.63480885  0.49168866  0.91409354     0.10000
C2812       C  0.63896017  0.95704529  0.96662472     0.03200
C2813       C  0.66333609  0.96033423  0.98356320    -0.13300
C2814       C  0.67494250  0.97943378  0.50647424    -0.09000
C2815       C  0.66353432  0.99824630  0.51437457     0.06600
C2816       C  0.63870011  0.99582130  0.99769848    -0.14100
S2817       S  0.62360784  0.92958721  0.93622781    -0.31000
H2818       H  0.67282533  0.94648033  0.97823448     0.10900
S2819       S  0.67724162  0.52457087  0.54259868    -0.28100
H2820       H  0.63264542  0.50791120  0.99960194     0.08100
H2821       H  0.63290897  0.50154912  0.86445425     0.26500
H2822       H  0.64175959  0.91705504  0.94109631     0.21300
H2823       H  0.70705650  0.53400410  0.53512023     0.26600
H2824       H  0.57957732  0.94117365  0.00675384     0.15500
C2825       C  0.82341617  0.99250028  0.67414429    -0.11800
C2826       C  0.81659629  0.98144834  0.70428418     0.14700
C2827       C  0.78805923  0.97238905  0.71633957     0.01600
C2828       C  0.76709889  0.97465475  0.69818758    -0.16200
C2829       C  0.77366936  0.98583242  0.66794798    -0.11000
C2830       C  0.80254420  0.99519820  0.65601960     0.08300
C2831       C  0.84031959  0.98241940  0.72396313     0.09400
S2832       S  0.77719801  0.95855233  0.75510709    -0.25300
H2833       H  0.74525744  0.96733133  0.70787983     0.19600
S2834       S  0.81512915  0.01276283  0.61895539    -0.31000
H2835       H  0.84558512  0.00019670  0.66512886     0.10000
C2836       C  0.84674250  0.95910198  0.72422981     0.03200
C2837       C  0.86628410  0.95904515  0.74654272    -0.13300
C2838       C  0.87931450  0.98170280  0.76890805    -0.09000
C2839       C  0.87310687  0.00539714  0.76792171     0.06600
C2840       C  0.85425803  0.00570168  0.74520344    -0.14100
S2841       S  0.82881345  0.92867912  0.69722362    -0.31000
H2842       H  0.87104966  0.94100800  0.74685907     0.10900
S2843       S  0.89131706  0.53681814  0.79031711    -0.28100
H2844       H  0.85173188  0.52262333  0.74086301     0.08100
H2845       H  0.80233428  0.03090969  0.62212919     0.26500
H2846       H  0.84171677  0.91225665  0.70816327     0.21300
H2847       H  0.88182407  0.51992744  0.81763761     0.26600
H2848       H  0.79567099  0.94621287  0.75823437     0.15500
C2849       C  0.66005562  0.00267052  0.70967030    -0.11800
C2850       C  0.63095945  0.98472418  0.69845313     0.14700
C2851       C  0.62670954  0.97006712  0.66992825     0.01600
C2852       C  0.65144364  0.97272970  0.65408957    -0.16200
C2853       C  0.68052303  0.98967856  0.66588950    -0.11000
C2854       C  0.68479635  0.00569996  0.69356706     0.08300
C2855       C  0.60582076  0.98146330  0.71757420     0.09400
S2856       S  0.59059048  0.94718629  0.65241627    -0.25300
H2857       H  0.64776353  0.96061170  0.63272287     0.19600
S2858       S  0.72290866  0.53123328  0.70683302    -0.31000
H2859       H  0.66583878  0.51586687  0.72973597     0.10000
C2860       C  0.59789323  0.96473190  0.74499045     0.03200
C2861       C  0.57568665  0.96394489  0.76386517    -0.13300
C2862       C  0.56026594  0.97873014  0.75561324    -0.09000
C2863       C  0.56721190  0.99423990  0.72716146     0.06600
C2864       C  0.59006114  0.99563932  0.70868065    -0.14100
S2865       S  0.61579126  0.94398198  0.75591463    -0.31000
H2866       H  0.57035137  0.95168791  0.78533444     0.10900
S2867       S  0.54858063  0.01327759  0.71319088    -0.28100
H2868       H  0.59590569  0.00821072  0.68737050     0.08100
H2869       H  0.73591364  0.54030072  0.67750882     0.26500
H2870       H  0.59426530  0.92557532  0.77772616     0.21300
H2871       H  0.54758240  0.02535950  0.74166498     0.26600
H2872       H  0.57274608  0.94247862  0.67838180     0.15500
C2873       C  0.89102420  0.87416319  0.96127911    -0.11800
C2874       C  0.86150854  0.85831542  0.95070714     0.14700
C2875       C  0.85467333  0.86478587  0.92134201     0.01600
C2876       C  0.87753080  0.88578077  0.90271112    -0.16200
C2877       C  0.90731022  0.90133186  0.91277106    -0.11000
C2878       C  0.91404346  0.89533980  0.94258112     0.08300
C2879       C  0.83865684  0.83357114  0.96958405     0.09400
S2880       S  0.81729093  0.84671086  0.90604399    -0.25300
H2881       H  0.87184889  0.89015933  0.88007323     0.19600
S2882       S  0.95145896  0.91213094  0.95740888    -0.31000
H2883       H  0.89634209  0.86903640  0.98374443     0.10000
C2884       C  0.82678218  0.80361600  0.96046797     0.03200
C2885       C  0.80363528  0.78083233  0.97759339    -0.13300
C2886       C  0.78938075  0.78869969  0.50306865    -0.09000
C2887       C  0.80463273  0.81733002  0.01336663     0.06600
C2888       C  0.82780168  0.84010693  0.99619959    -0.14100
S2889       S  0.84170353  0.79431593  0.92749765    -0.31000
H2890       H  0.79465961  0.75779559  0.97074545     0.10900
S2891       S  0.78680656  0.82958595  0.54442052    -0.28100
H2892       H  0.83682145  0.86316847  0.00306839     0.08100
H2893       H  0.96417550  0.91021922  0.92962784     0.26500
H2894       H  0.82072726  0.76355905  0.92724055     0.21300
H2895       H  0.75691115  0.80729271  0.53975263     0.26600
H2896       H  0.80268244  0.84166019  0.93452245     0.15500
C2897       C  0.65029837  0.64713708  0.99784614    -0.11800
C2898       C  0.65698213  0.64235340  0.96792540     0.14700
C2899       C  0.68584481  0.66108708  0.95594186     0.01600
C2900       C  0.70734553  0.68395301  0.97422749    -0.16200
C2901       C  0.70074375  0.68924951  0.00413792    -0.11000
C2902       C  0.66923077  0.67165732  0.51580969     0.08300
C2903       C  0.63243722  0.62077108  0.94821843     0.09400
S2904       S  0.69633619  0.65845154  0.91692695    -0.25300
H2905       H  0.72944804  0.69800052  0.96473373     0.19600
S2906       S  0.65619368  0.67930498  0.55114622    -0.31000
H2907       H  0.62781239  0.63344386  0.00659471     0.10000
C2908       C  0.62560559  0.59098419  0.94515871     0.03200
C2909       C  0.60454546  0.57265251  0.92318984    -0.13300
C2910       C  0.59020953  0.58353215  0.90409596    -0.09000
C2911       C  0.59617509  0.61314419  0.90862962     0.06600
C2912       C  0.61697363  0.63118592  0.93073203    -0.14100
S2913       S  0.64469041  0.57680565  0.96815968    -0.31000
H2914       H  0.59970450  0.54989514  0.92045732     0.10900
S2915       S  0.57987794  0.63030231  0.88589708    -0.28100
H2916       H  0.62219776  0.65410598  0.93338998     0.08100
H2917       H  0.67178773  0.71047086  0.54704120     0.26500
H2918       H  0.63031889  0.54777728  0.95579061     0.21300
H2919       H  0.58772007  0.62285161  0.85766271     0.26600
H2920       H  0.67496659  0.62842389  0.91168311     0.15500
C2921       C  0.89630438  0.87986092  0.70504464    -0.11800
C2922       C  0.86635991  0.86296961  0.71409339     0.14700
C2923       C  0.85773571  0.86804641  0.74317813     0.01600
C2924       C  0.87929312  0.88852309  0.76320270    -0.16200
C2925       C  0.90948493  0.90484366  0.75475625    -0.11000
C2926       C  0.91798351  0.90070310  0.72500667     0.08300
C2927       C  0.84517943  0.83762284  0.69478975     0.09400
S2928       S  0.81957040  0.84869860  0.75627218    -0.25300
H2929       H  0.87232281  0.89179112  0.78566081     0.19600
S2930       S  0.95611888  0.91926160  0.71189850    -0.31000
H2931       H  0.90303616  0.87572188  0.68285920     0.10000
C2932       C  0.83455095  0.84172870  0.66648455     0.03200
C2933       C  0.81237952  0.81671012  0.65071895    -0.13300
C2934       C  0.80085216  0.78769077  0.66264250    -0.09000
C2935       C  0.81317005  0.78373079  0.69001107     0.06600
C2936       C  0.83479724  0.80866136  0.70589535    -0.14100
S2937       S  0.84816191  0.87878114  0.65121893    -0.31000
H2938       H  0.80325169  0.81984187  0.62960205     0.10900
S2939       S  0.80307725  0.74757040  0.70547198    -0.28100
H2940       H  0.84363973  0.80550597  0.72724581     0.08100
H2941       H  0.96784264  0.91616369  0.73983129     0.26500
H2942       H  0.83060567  0.87003742  0.62442757     0.21300
H2943       H  0.79949873  0.73391969  0.67659910     0.26600
H2944       H  0.80677624  0.84516227  0.72695863     0.15500
C2945       C  0.67185907  0.67740464  0.71330584    -0.11800
C2946       C  0.65952097  0.64758961  0.70421838     0.14700
C2947       C  0.66925388  0.64086412  0.67660305     0.01600
C2948       C  0.69161592  0.66417910  0.65917122    -0.16200
C2949       C  0.70428743  0.69409104  0.66849715    -0.11000
C2950       C  0.69374519  0.70066856  0.69566755     0.08300
C2951       C  0.63649600  0.62445580  0.72432009     0.09400
S2952       S  0.65461256  0.60327349  0.66249870    -0.25300
H2953       H  0.69943440  0.65889112  0.63831778     0.19600
S2954       S  0.70613955  0.73820282  0.70844334    -0.31000
H2955       H  0.66405212  0.68260388  0.73423336     0.10000
C2956       C  0.64353818  0.60885050  0.74597600     0.03200
C2957       C  0.62145601  0.58899260  0.76637827    -0.13300
C2958       C  0.59229289  0.58446331  0.76590139    -0.09000
C2959       C  0.58542911  0.59983439  0.74338975     0.06600
C2960       C  0.60757497  0.61981880  0.72327127    -0.14100
S2961       S  0.68091659  0.61499981  0.74830415    -0.31000
H2962       H  0.62726475  0.57746941  0.78329556     0.10900
S2963       S  0.54887300  0.59432613  0.73789550    -0.28100
H2964       H  0.60220794  0.63183963  0.70647271     0.08100
H2965       H  0.70821044  0.74985856  0.67871297     0.26500
H2966       H  0.67711570  0.59985996  0.77630699     0.21300
H2967       H  0.53489508  0.56316545  0.74095913     0.26600
H2968       H  0.62769247  0.58971818  0.67898554     0.15500
loop_ 
_geom_bond_atom_site_label_1 
_geom_bond_atom_site_label_2 
_geom_bond_distance 
_geom_bond_site_symmetry_2 
_ccdc_geom_bond_type 
C1            N2   1.361       .  A
C1            N6   1.359       .  A
C1          C352   1.478       .  S
N2            C3   1.360       .  A
C3            N4   1.355       .  A
C3            C9   1.464       .  S
N4            C5   1.353       .  A
C5            N6   1.357       .  A
C5          C337   1.472       .  S
C7            N8   1.360       .  A
C7           N12   1.361       .  A
C7          C675   1.481       .  S
N8            C9   1.358       .  A
C9           N10   1.356       .  A
N10          C11   1.354       .  A
C11          N12   1.359       .  A
C11         C289   1.478       .  S
C13          N14   1.362       .  A
C13          N18   1.360       .  A
C13         C232   1.485       .  S
N14          C15   1.360       .  A
C15          N16   1.359       .  A
C15          C23   1.472       .  S
N16          C17   1.357       .  A
C17          N18   1.358       .  A
C17         C256   1.484       .  S
C19          N20   1.358       .  A
C19          N24   1.363       .  A
C19         C555   1.486       .  S
N20          C21   1.356       .  A
C21          N22   1.355       .  A
C21         C217   1.479       .  S
N22          C23   1.359       .  A
C23          N24   1.363       .  A
C25          N26   1.361       .  A
C25          N30   1.361       .  A
C25         C160   1.487       .  S
N26          C27   1.359       .  A
C27          N28   1.359       .  A
C27          C33   1.469       .  S
N28          C29   1.356       .  A
C29          N30   1.358       .  A
C29         C136   1.484       .  S
C31          N32   1.363       .  A
C31          N36   1.363       .  A
C31         C492   1.492       .  S
N32          C33   1.361       .  A
C33          N34   1.355       .  A
N34          C35   1.353       .  A
C35          N36   1.361       .  A
C35          C97   1.486       .  S
O37         Mn63   2.104       .  S
O37        C1548   1.274   1_455  A
C38         C361   1.491       .  S
C38          O71   1.272       .  A
C38          O68   1.276       .  A
O39         Mn46   2.177       .  S
O39         Mn57   2.125       .  S
O39         Mn61   2.174       .  S
O39       Mn1547   2.123       .  S
O40         Mn74   2.086       .  S
O40          C50   1.270       .  A
O41         Mn57   2.101       .  S
O41          C64   1.272       .  A
O42         Mn61   2.104       .  S
O42          C69   1.255       .  A
O43         Mn63   1.957       .  S
O43        Mn816   1.955       .  S
O43          C59   1.214       .  S
C44          C88   1.486       .  S
C44          O47   1.257       .  A
C44          O70   1.211       .  S
O45         Mn46   2.166       .  S
O45         Mn79   2.131       .  S
O45         Mn61   2.170       .  S
O45        Mn807   2.115       .  S
Mn46         O51   2.078       .  S
Mn46        O817   2.129       .  S
Mn46       O1562   2.110       .  S
Mn46       O2278   2.154       .  S
O47        Mn803   2.131   1_545  S
O48         Mn55   2.091       .  S
O48          C50   1.271       .  A
C49         C145   1.494       .  S
C49          O75   1.256       .  A
C49          O62   1.212       .  S
C50         C313   1.478       .  S
O51          C76   1.248       .  A
O52         Mn55   2.122       .  S
O52         Mn74   2.117       .  S
O52       Mn2272   2.157   1_445  S
O52       Mn2287   2.171   1_445  S
O53         Mn57   1.969       .  S
O53         Mn79   1.968       .  S
O53          C76   1.223       .  S
C54         C193   1.487       .  S
C54          O56   1.272       .  A
C54         O822   1.274       .  A
Mn55         O68   2.112       .  S
Mn55       O1554   1.953   1_455  S
Mn55       O1546   1.966   1_455  S
O56         Mn79   2.096       .  S
Mn57         O73   2.092       .  S
Mn57         O67   1.957       .  S
O58         Mn63   2.101       .  S
O58        C1544   1.274   1_455  A
C59         C208   1.490       .  S
C59          O77   1.255       .  A
C60         C169   1.499       .  S
C60          O73   1.269       .  A
C60        O1542   1.273       .  A
Mn61        O789   2.125       .  S
Mn61       O1561   2.122       .  S
Mn61       O2278   2.168       .  S
O62         Mn65   1.963       .  S
O62       Mn1539   1.953       .  S
Mn63       O1523   2.124   1_455  S
Mn63         O81   1.966       .  S
C64         C112   1.496       .  S
C64        O1521   1.273       .  A
Mn65         O72   2.093   1_545  S
Mn65         O80   2.111   1_545  S
Mn65        O787   2.110   1_545  S
Mn65         O70   1.959       .  S
C66         C241   1.479       .  S
C66          O82   1.271       .  A
C66         O814   1.272       .  A
O67         Mn79   1.959       .  S
O67          C69   1.221       .  S
C69         C280   1.483       .  S
O70       Mn1539   1.947       .  S
O71         Mn74   2.083       .  S
O72         C808   1.271       .  A
Mn74        O785   1.952   1_545  S
Mn74        O823   1.965   1_545  S
O75        Mn788   2.127   1_545  S
C76         C328   1.480       .  S
O77       Mn1545   2.121   1_455  S
O78       Mn1530   2.103   1_455  S
O78          C83   1.252       .  A
Mn79         O82   2.092       .  S
O80         C796   1.273       .  A
O81        Mn816   1.962       .  S
O81          C83   1.220       .  S
C83         C265   1.485       .  S
C84          C85   1.397       .  A
C84        C1573   1.398       .  A
C84        H1578   1.083       .  S
C85          C90   1.483       .  S
C85          C86   1.412       .  A
C86          C87   1.406       .  A
C86          S91   1.802       .  S
C87          C88   1.406       .  A
C87          H92   1.084       .  S
C88        C1573   1.420       .  A
C89        C1568   1.398       .  A
C89        C1572   1.422       .  A
C89          S93   1.810       .  S
C90          C99   1.399       .  A
C90        C1579   1.410       .  A
S91         H478   1.406       .  S
S93         H104   1.407       .  S
H94        C1568   1.083       .  S
C95        C1574   1.410       .  A
C95         C467   1.406       .  A
C95         S100   1.806       .  S
C96         C466   1.403       .  A
C96        C1581   1.406   1_456  A
C96         H101   1.082       .  S
C97        C1580   1.405   1_554  A
C97         C469   1.421       .  A
C98          C99   1.399       .  A
C98         C468   1.421       .  A
C98         S102   1.803       .  S
C99         H103   1.084       .  S
S100        H476   1.407       .  S
S102        H106   1.408       .  S
H105        S471   1.407       .  S
H107        S462   1.406       .  S
C108        C109   1.402       .  A
C108        C113   1.402       .  A
C108        H118   1.084       .  S
C109        C114   1.490       .  S
C109       C1594   1.411       .  A
C110        C111   1.402       .  A
C110       C1593   1.412   1_455  A
C110        S115   1.802       .  S
C111       C1596   1.409   1_455  A
C111        H116   1.084       .  S
C112        C113   1.420       .  A
C112       C1595   1.410       .  A
C113        S117   1.800       .  S
C114        C119   1.410       .  A
C114        C123   1.403       .  A
S115        H131   1.406       .  S
S117        H128   1.408       .  S
C119        C491   1.407       .  A
C119       S1979   1.807       .  S
C120        C490   1.406   1_554  A
C120        C492   1.409       .  A
C120        H125   1.083       .  S
C121        C402   1.489       .  S
C121        C122   1.415       .  A
C121        C491   1.408       .  A
C122        C123   1.405       .  A
C122        S126   1.808       .  S
C123        H127   1.082       .  S
S124       C1974   1.807   1_554  S
S124        H129   1.407       .  S
S126        H130   1.407       .  S
C132        C137   1.401       .  A
C132       C1617   1.402       .  A
C132        H142   1.084       .  S
C133        C138   1.488       .  S
C133        C134   1.414       .  A
C133       C1616   1.404       .  A
C134        C135   1.400       .  A
C134        S139   1.805       .  S
C135        C136   1.404       .  A
C135        H140   1.084       .  S
C136       C1621   1.417       .  A
C137       C1620   1.419       .  A
C137        S141   1.803   1_655  S
C138        C143   1.410       .  A
C138       C1631   1.398       .  A
S139        H155   1.406       .  S
S141        H152   1.407       .  S
C143        C144   1.409       .  A
C143        S148   1.805       .  S
C144        C145   1.408       .  A
C144        H149   1.082       .  S
C145       C1630   1.425       .  A
C146        C147   1.398       .  A
C146       C1629   1.421       .  A
C146        S150   1.810   1_655  S
C147       C1622   1.398       .  A
C147        H151   1.083       .  S
S148        H153   1.407       .  S
S150        H154   1.407       .  S
C156        C161   1.406       .  A
C156       C1641   1.401       .  A
C156        H166   1.083       .  S
C157        C162   1.482       .  S
C157        C158   1.411       .  A
C157       C1640   1.403       .  A
C158        C159   1.396       .  A
C158        S163   1.805       .  S
C159        C160   1.406       .  A
C159        H164   1.084       .  S
C160       C1645   1.417       .  A
C161       C1644   1.419       .  A
C161        S165   1.809       .  S
C162        C171   1.398       .  A
C162       C1651   1.407       .  A
S163        H179   1.405       .  S
S165        H176   1.407       .  S
C167        C168   1.405       .  A
C167       C1646   1.407   1_455  A
C167        S172   1.805       .  S
C168       C1653   1.411   1_455  A
C168        H173   1.082       .  S
C169        C170   1.425       .  A
C169       C1652   1.412       .  A
C170        C171   1.400       .  A
C170        S174   1.801       .  S
C171        H175   1.084       .  S
S172        H177   1.407       .  S
S174        H178   1.401       .  S
C180        C181   1.401       .  A
C180        C185   1.400       .  A
C180        H932   1.084       .  S
C181        C186   1.485       .  S
C181        C182   1.413       .  A
C182        C554   1.404       .  A
C182        S558   1.804       .  S
C183        C553   1.404   1_554  A
C183        C555   1.406       .  A
C183        H188   1.084       .  S
C184        C390   1.487       .  S
C184        C185   1.418       .  A
C184        C554   1.406       .  A
C185        S931   1.804       .  S
C186        C191   1.408       .  A
C186        C195   1.402       .  A
S187        C553   1.804   1_554  S
S187        H574   1.405   1_554  S
S189        C927   1.804   1_545  S
S189        H200   1.408       .  S
H190        C922   1.084       .  S
C191        C192   1.404       .  A
C191        S196   1.806       .  S
C192        C193   1.407       .  A
C192        H197   1.083       .  S
C193        C194   1.415       .  A
C194        C195   1.403       .  A
C194        S940   1.798       .  S
C195        H941   1.084       .  S
S196        H201   1.407       .  S
S198        C936   1.797   1_545  S
S198        H202   1.406   1_545  S
H199        C937   1.084   1_545  S
H203        S558   1.405       .  S
C204        C205   1.397       .  A
C204        C209   1.399       .  A
C204        H956   1.083       .  S
C205        C210   1.483       .  S
C205        C206   1.412       .  A
C206        C207   1.405       .  A
C206        S211   1.803       .  S
C207        C208   1.408       .  A
C207        H212   1.083       .  S
C208        C209   1.423       .  A
C209        S955   1.812       .  S
C210        C215   1.411       .  A
C210        C219   1.403       .  A
S211        H227   1.405       .  S
S213        C951   1.812       .  S
S213        H224   1.406   1_565  S
H214        C946   1.083       .  S
C215        C216   1.402       .  A
C215        S220   1.807       .  S
C216        C588   1.402       .  A
C216        H221   1.083       .  S
C217        C218   1.415       .  A
C217        C587   1.404   1_554  A
C218        C590   1.400   1_554  A
C218        S964   1.803       .  S
C219        C589   1.402       .  A
C219        H965   1.084       .  S
S220        H225   1.406       .  S
S222        C960   1.803   1_545  S
S222        H226   1.407       .  S
H223        C961   1.084       .  S
C228        C229   1.402       .  A
C228        C233   1.403       .  A
C228        H238   1.084       .  S
C229        C234   1.481       .  S
C229        C230   1.411       .  A
C230        C231   1.399       .  A
C230        S235   1.804       .  S
C231        C232   1.406       .  A
C231        H236   1.084       .  S
C232        C233   1.417       .  A
C233        S237   1.802       .  S
C234        C239   1.409       .  A
C234        C243   1.400       .  A
S235        H251   1.406       .  S
S237        H248   1.407       .  S
C239        C240   1.406       .  A
C239        S244   1.804       .  S
C240        C241   1.406       .  A
C240        H245   1.083       .  S
C241        C242   1.416       .  A
C242        C243   1.397       .  A
C242        S988   1.804       .  S
C243        H989   1.084       .  S
S244        H249   1.406       .  S
S246        C984   1.803   1_545  S
S246        H250   1.408       .  S
H247        C985   1.084   1_545  S
C252        C253   1.403       .  A
C252        C257   1.399       .  A
C252       H1004   1.084       .  S
C253        C258   1.482       .  S
C253        C254   1.412       .  A
C254        C255   1.401       .  A
C254        S259   1.805       .  S
C255        C256   1.406       .  A
C255        H260   1.084       .  S
C256        C257   1.415       .  A
C257       S1003   1.803       .  S
C258        C263   1.408       .  A
C258        C267   1.403       .  A
S259        H275   1.404       .  S
S261        C999   1.803   1_545  S
S261        H272   1.407       .  S
H262        C994   1.084   1_545  S
C263        C264   1.399       .  A
C263        S268   1.808       .  S
C264        C265   1.407       .  A
C264        H269   1.083       .  S
C265        C266   1.418       .  A
C266        C267   1.403       .  A
C266        S270   1.802       .  S
C267        H271   1.084       .  S
S268        H273   1.407       .  S
S270        H274   1.403       .  S
C276        C277   1.403       .  A
C276        C281   1.403       .  A
C276        H286   1.084       .  S
C277        C282   1.480       .  S
C277        C278   1.410       .  A
C278        C279   1.394       .  A
C278        S283   1.806       .  S
C279        C280   1.407       .  A
C279        H284   1.084       .  S
C280        C281   1.417       .  A
C281        S285   1.802       .  S
C282        C287   1.410       .  A
C282        C291   1.400       .  A
S283        H299   1.405       .  S
S285        H296   1.405       .  S
C287        C288   1.402       .  A
C287        S292   1.807       .  S
C288        C660   1.404       .  A
C288        H293   1.083       .  S
C289        C659   1.403   1_554  A
C289        C661   1.417       .  A
C290        C291   1.400       .  A
C290        C660   1.417       .  A
C290        S665   1.803       .  S
C291        H295   1.084       .  S
S292        H297   1.406       .  S
S294        C661   1.804       .  S
S294        H298   1.407       .  S
C300        C301   1.401       .  A
C300        C676   1.402       .  A
C300        H310   1.084       .  S
C301        C306   1.477       .  S
C301        C302   1.409       .  A
C302        C303   1.396       .  A
C302        S307   1.804       .  S
C303        C304   1.405       .  A
C303        H308   1.084       .  S
C304        C378   1.484       .  S
C304        C676   1.419       .  A
C305        C671   1.401   1_554  A
C305        C675   1.416       .  A
C305        S309   1.803       .  S
C306        C311   1.408       .  A
C306        C315   1.400       .  A
S307        H323   1.405       .  S
S309        H320   1.407       .  S
C311        C312   1.403       .  A
C311        S316   1.806       .  S
C312        C313   1.407       .  A
C312        H317   1.083       .  S
C313        C314   1.415       .  A
C314        C315   1.396       .  A
C314        S318   1.804       .  S
C315        H319   1.084       .  S
S316        H321   1.408       .  S
S318        H322   1.408       .  S
C324        C325   1.400       .  A
C324        C329   1.400       .  A
C324        H334   1.084       .  S
C325        C330   1.475       .  S
C325        C326   1.409       .  A
C326        C327   1.395       .  A
C326        S331   1.804       .  S
C327        C328   1.405       .  A
C327        H332   1.084       .  S
C328        C329   1.419       .  A
C329        S333   1.803       .  S
C330        C335   1.407       .  A
C330        C339   1.402       .  A
S331        H347   1.406       .  S
S333        H344   1.404       .  S
C335        C336   1.401       .  A
C335        S340   1.804       .  S
C336        C337   1.405       .  A
C336        H341   1.083       .  S
C337        C338   1.411       .  A
C338        C339   1.397       .  A
C338        S342   1.803       .  S
C339        H343   1.084       .  S
S340        H345   1.407       .  S
S342        H346   1.407       .  S
C348        C349   1.400       .  A
C348        C353   1.397       .  A
C348        H358   1.084       .  S
C349        C354   1.477       .  S
C349        C350   1.412       .  A
C350        C351   1.401       .  A
C350        S355   1.805       .  S
C351        C352   1.405       .  A
C351        H356   1.084       .  S
C352        C353   1.416       .  A
C353        S357   1.804       .  S
C354        C359   1.406       .  A
C354        C363   1.398       .  A
S355        H371   1.405       .  S
S357        H368   1.407       .  S
C359        C360   1.402       .  A
C359        S364   1.806       .  S
C360        C361   1.411       .  A
C360        H365   1.082       .  S
C361        C362   1.417       .  A
C362        C363   1.398       .  A
C362        S366   1.792       .  S
C363        H367   1.084       .  S
S364        H369   1.407       .  S
S366        H370   1.404       .  S
C372        N373   1.359       .  A
C372        N377   1.357       .  A
C372        C723   1.476       .  S
N373        C374   1.359       .  A
C374        N375   1.357       .  A
C374        C380   1.464       .  S
N375        C376   1.356       .  A
C376        N377   1.356       .  A
C376        C708   1.478       .  S
C378        N379   1.359       .  A
C378        N383   1.361       .  A
N379        C380   1.358       .  A
C380        N381   1.356       .  A
N381        C382   1.355       .  A
C382        N383   1.358       .  A
C382        C660   1.479       .  S
C384        N385   1.362       .  A
C384        N389   1.360       .  A
C384        C603   1.488       .  S
N385        C386   1.361       .  A
C386        N387   1.360       .  A
C386        C394   1.474       .  S
N387        C388   1.358       .  A
C388        N389   1.358       .  A
C388        C627   1.488       .  S
C390        N391   1.359       .  A
C390        N395   1.363       .  A
N391        C392   1.357       .  A
C392        N393   1.357       .  A
C392        C588   1.478       .  S
N393        C394   1.360       .  A
C394        N395   1.363       .  A
C396        N397   1.360       .  A
C396        N401   1.362       .  A
C396        C531   1.499       .  S
N397        C398   1.359       .  A
C398        N399   1.360       .  A
C398        C404   1.471       .  S
N399        C400   1.357       .  A
C400        N401   1.358       .  A
C400        C507   1.480       .  S
C402        N403   1.361       .  A
C402        N407   1.363       .  A
N403        C404   1.360       .  A
C404        N405   1.356       .  A
N405        C406   1.357       .  A
C406        N407   1.362       .  A
C406        C468   1.491       .  S
O408       Mn434   2.100       .  S
O408       C1919   1.273   1_455  A
C409        C732   1.487       .  S
C409        O442   1.271       .  A
C409        O439   1.276       .  A
O410       Mn417   2.175       .  S
O410       Mn428   2.122       .  S
O410       Mn432   2.175       .  S
O410      Mn1918   2.125       .  S
O411       Mn445   2.091       .  S
O411        C421   1.272       .  A
O412       Mn428   2.089       .  S
O412        C435   1.269       .  A
O413       Mn432   2.100       .  S
O413        C440   1.253       .  A
O414      Mn1187   1.949       .  S
O414       Mn434   1.954       .  S
O414        C430   1.213       .  S
C415        C459   1.486       .  S
C415        O418   1.255       .  A
C415        O441   1.213       .  S
O416      Mn1178   2.113       .  S
O416       Mn417   2.175       .  S
O416       Mn450   2.133       .  S
O416       Mn432   2.172       .  S
Mn417      O1188   2.130       .  S
Mn417       O422   2.085       .  S
Mn417      O1933   2.123       .  S
Mn417      O2649   2.156       .  S
O418      Mn1174   2.125   1_545  S
O419       Mn426   2.097       .  S
O419        C421   1.271       .  A
C420        C516   1.496       .  S
C420        O446   1.256       .  A
C420        O433   1.215       .  S
C421        C684   1.490       .  S
O422        C447   1.250       .  A
O423      Mn2643   2.155   1_445  S
O423       Mn426   2.120       .  S
O423       Mn445   2.113       .  S
O423      Mn2658   2.169   1_445  S
O424       Mn428   1.967       .  S
O424       Mn450   1.964       .  S
O424        C447   1.223       .  S
C425        C564   1.484       .  S
C425       O1193   1.273       .  A
C425        O427   1.270       .  A
Mn426       O439   2.112       .  S
Mn426      O1925   1.954   1_455  S
Mn426      O1917   1.967   1_455  S
O427       Mn450   2.092       .  S
Mn428       O444   2.084       .  S
Mn428       O438   1.955       .  S
O429       Mn434   2.103       .  S
O429       C1915   1.274   1_455  A
C430        C579   1.489       .  S
C430        O448   1.255       .  A
C431        C540   1.497       .  S
C431       O1913   1.274       .  A
C431        O444   1.268       .  A
Mn432      O1160   2.123       .  S
Mn432      O1932   2.120       .  S
Mn432      O2649   2.166       .  S
O433      Mn1910   1.963       .  S
O433       Mn436   1.965       .  S
Mn434      O1894   2.121   1_455  S
Mn434       O452   1.961       .  S
C435        C483   1.494       .  S
C435       O1892   1.274       .  A
Mn436       O443   2.084       .  S
Mn436       O451   2.113       .  S
Mn436      O1158   2.115   1_545  S
Mn436       O441   1.957       .  S
C437        C612   1.486       .  S
C437       O1185   1.271       .  A
C437        O453   1.272       .  A
O438       Mn450   1.958       .  S
O438        C440   1.221       .  S
C440        C651   1.483       .  S
O441      Mn1910   1.952       .  S
O442       Mn445   2.078       .  S
O443       C1179   1.269   1_545  A
Mn445      O1156   1.948   1_545  S
Mn445      O1194   1.959   1_545  S
O446      Mn1159   2.118   1_545  S
C447        C699   1.479       .  S
O448      Mn1916   2.123   1_455  S
O449      Mn1901   2.113   1_455  S
O449        C454   1.254       .  A
Mn450       O453   2.095       .  S
O451       C1167   1.274   1_545  A
O452      Mn1187   1.960       .  S
O452        C454   1.218       .  S
C454        C636   1.486       .  S
C455        C456   1.396       .  A
C455       C1944   1.395       .  A
C455       H1949   1.083       .  S
C456        C461   1.481       .  S
C456        C457   1.412       .  A
C457        C458   1.406       .  A
C457        S462   1.802       .  S
C458        C459   1.407       .  A
C458        H463   1.083       .  S
C459       C1944   1.419       .  A
C460       C1939   1.396       .  A
C460       C1943   1.421       .  A
C460        S464   1.811       .  S
C461       C1950   1.409       .  A
C461        C470   1.400   1_556  A
S464        H475   1.406       .  S
H465       C1939   1.083       .  S
C466       C1945   1.409       .  A
C466        S471   1.807       .  S
C467       C1952   1.406   1_455  A
C467        H472   1.082       .  S
C468       C1951   1.408       .  A
C469        C470   1.401       .  A
C469        S473   1.803       .  S
C470        H474   1.084       .  S
S473        H477   1.407       .  S
C479        C480   1.400       .  A
C479        C484   1.400       .  A
C479        H489   1.084       .  S
C480        C485   1.486       .  S
C480       C1965   1.411       .  A
C481       C1964   1.411   1_455  A
C481        C482   1.401       .  A
C481        S486   1.803       .  S
C482       C1967   1.410   1_455  A
C482        H487   1.084       .  S
C483       C1966   1.409       .  A
C483        C484   1.422       .  A
C484        S488   1.801       .  S
C485        C490   1.408       .  A
C485        C494   1.401       .  A
S486        H502   1.406       .  S
S488        H499   1.408       .  S
C490       S1608   1.806   1_556  S
C491        H496   1.082       .  S
C492        C493   1.418   1_554  A
C493        C494   1.405       .  A
C493        S497   1.808       .  S
C494        H498   1.083       .  S
S495       C1603   1.807       .  S
S495        H500   1.407       .  S
S497        H501   1.407       .  S
C503       C1988   1.402       .  A
C503        C508   1.402       .  A
C503        H513   1.084       .  S
C504        C509   1.487       .  S
C504       C1987   1.404       .  A
C504        C505   1.413       .  A
C505        C506   1.401       .  A
C505        S510   1.805       .  S
C506        C507   1.404       .  A
C506        H511   1.084       .  S
C507       C1992   1.414       .  A
C508       C1991   1.420       .  A
C508        S512   1.803   1_655  S
C509        C514   1.409       .  A
C509       C2002   1.397       .  A
S510        H526   1.406       .  S
S512        H523   1.407       .  S
C514        C515   1.407       .  A
C514        S519   1.805       .  S
C515        C516   1.409       .  A
C515        H520   1.082       .  S
C516       C2001   1.425       .  A
C517       C2000   1.421       .  A
C517        C518   1.400       .  A
C517        S521   1.811   1_655  S
C518       C1993   1.399       .  A
C518        H522   1.083       .  S
S519        H524   1.407       .  S
S521        H525   1.407       .  S
C527       C2012   1.403       .  A
C527        C532   1.408       .  A
C527        H537   1.083       .  S
C528        C533   1.481       .  S
C528       C2011   1.401       .  A
C528        C529   1.409       .  A
C529        C530   1.397       .  A
C529        S534   1.807       .  S
C530        C531   1.409       .  A
C530        H535   1.083       .  S
C531       C2016   1.424       .  A
C532       C2015   1.419       .  A
C532        S536   1.808       .  S
C533       C2022   1.407       .  A
C533        C542   1.397       .  A
S534        H550   1.403       .  S
S536        H547   1.407       .  S
C538       C2017   1.407   1_455  A
C538        C539   1.406       .  A
C538        S543   1.806       .  S
C539       C2024   1.412   1_455  A
C539        H544   1.082       .  S
C540       C2023   1.411       .  A
C540        C541   1.425       .  A
C541        C542   1.399       .  A
C541        S545   1.802       .  S
C542        H546   1.084       .  S
S543        H548   1.405       .  S
S545        H549   1.405       .  S
C551        C552   1.401       .  A
C551        C556   1.399       .  A
C551       H1303   1.084       .  S
C552        C557   1.484       .  S
C552        C553   1.413       .  A
C554        H559   1.084       .  S
C555        C556   1.418   1_554  A
C556       S1302   1.804       .  S
C557        C562   1.410       .  A
C557        C566   1.402       .  A
S560       C1298   1.804   1_545  S
S560        H571   1.407       .  S
H561       C1293   1.085       .  S
C562        C563   1.404       .  A
C562        S567   1.806       .  S
C563        C564   1.406       .  A
C563        H568   1.083       .  S
C564        C565   1.414       .  A
C565        C566   1.402       .  A
C565       S1311   1.798       .  S
C566       H1312   1.084       .  S
S567        H572   1.407       .  S
S569       C1307   1.794   1_545  S
S569        H573   1.406   1_545  S
H570       C1308   1.084   1_545  S
C575        C576   1.398       .  A
C575        C580   1.394       .  A
C575       H1327   1.084       .  S
C576        C581   1.484       .  S
C576        C577   1.413       .  A
C577        C578   1.404       .  A
C577        S582   1.803   1_556  S
C578        C579   1.406       .  A
C578        H583   1.084       .  S
C579        C580   1.422       .  A
C580       S1326   1.802       .  S
C581        C586   1.412       .  A
C581        C590   1.402       .  A
S582        H598   1.406       .  S
S584       C1322   1.814       .  S
S584        H595   1.406   1_565  S
H585       C1317   1.083       .  S
C586        C587   1.402       .  A
C586        S591   1.807       .  S
C587        H592   1.083       .  S
C588        C589   1.415       .  A
C589       S1335   1.803       .  S
C590       H1336   1.084   1_556  S
S591        H596   1.407       .  S
S593       C1331   1.802   1_545  S
S593        H597   1.407       .  S
H594       C1332   1.084   1_545  S
C599        C600   1.403       .  A
C599        C604   1.405       .  A
C599        H609   1.084       .  S
C600        C605   1.482       .  S
C600        C601   1.410       .  A
C601        C602   1.398       .  A
C601        S606   1.804       .  S
C602        C603   1.406       .  A
C602        H607   1.084       .  S
C603        C604   1.419       .  A
C604        S608   1.802       .  S
C605        C610   1.408       .  A
C605        C614   1.400       .  A
S606        H622   1.404       .  S
S608        H619   1.407       .  S
C610        C611   1.406       .  A
C610        S615   1.804       .  S
C611        C612   1.408       .  A
C611        H616   1.082       .  S
C612        C613   1.418       .  A
C613        C614   1.399       .  A
C613       S1359   1.804       .  S
C614       H1360   1.084       .  S
S615        H620   1.406       .  S
S617       C1355   1.804       .  S
S617        H621   1.408       .  S
H618       C1356   1.084       .  S
C623        C624   1.403       .  A
C623        C628   1.399       .  A
C623       H1375   1.084       .  S
C624        C629   1.485       .  S
C624        C625   1.412       .  A
C625        C626   1.403       .  A
C625        S630   1.805       .  S
C626        C627   1.408       .  A
C626        H631   1.084       .  S
C627        C628   1.417       .  A
C628       S1374   1.803       .  S
C629        C634   1.408       .  A
C629        C638   1.405       .  A
S630        H646   1.404       .  S
S632       C1370   1.803       .  S
S632        H643   1.407       .  S
H633       C1365   1.084   1_545  S
C634        C635   1.398       .  A
C634        S639   1.809       .  S
C635        C636   1.407       .  A
C635        H640   1.082       .  S
C636        C637   1.416       .  A
C637        C638   1.404       .  A
C637        S641   1.800       .  S
C638        H642   1.083       .  S
S639        H644   1.407       .  S
S641        H645   1.402       .  S
C647        C648   1.403       .  A
C647        C652   1.403       .  A
C647        H657   1.084       .  S
C648        C653   1.479       .  S
C648        C649   1.410       .  A
C649        C650   1.393       .  A
C649        S654   1.805       .  S
C650        C651   1.406       .  A
C650        H655   1.084       .  S
C651        C652   1.418       .  A
C652        S656   1.802       .  S
C653        C658   1.410       .  A
C653        C662   1.400       .  A
S654        H670   1.405       .  S
S656        H667   1.406       .  S
C658        C659   1.402       .  A
C658        S663   1.807       .  S
C659        H664   1.083       .  S
C661        C662   1.400   1_554  A
C662        H666   1.084   1_556  S
S663        H668   1.407       .  S
S665        H669   1.407       .  S
C671        C672   1.402       .  A
C671        H681   1.084   1_556  S
C672        C677   1.481       .  S
C672        C673   1.413       .  A
C673        C674   1.399       .  A
C673        S678   1.805       .  S
C674        C675   1.404   1_556  A
C674        H679   1.084       .  S
C676        S680   1.802       .  S
C677        C682   1.408       .  A
C677        C686   1.400       .  A
S678        H694   1.404       .  S
S680        H691   1.407       .  S
C682        C683   1.405       .  A
C682        S687   1.806       .  S
C683        C684   1.410       .  A
C683        H688   1.083       .  S
C684        C685   1.420       .  A
C685        C686   1.398       .  A
C685        S689   1.802       .  S
C686        H690   1.085       .  S
S687        H692   1.408       .  S
S689        H693   1.408       .  S
C695        C696   1.402       .  A
C695        C700   1.401       .  A
C695        H705   1.084       .  S
C696        C701   1.477       .  S
C696        C697   1.409       .  A
C697        C698   1.394       .  A
C697        S702   1.804       .  S
C698        C699   1.405       .  A
C698        H703   1.084       .  S
C699        C700   1.418       .  A
C700        S704   1.804       .  S
C701        C706   1.408       .  A
C701        C710   1.401       .  A
S702        H718   1.407       .  S
S704        H715   1.401       .  S
C706        C707   1.404       .  A
C706        S711   1.805       .  S
C707        C708   1.407       .  A
C707        H712   1.083       .  S
C708        C709   1.414       .  A
C709        C710   1.395       .  A
C709        S713   1.803       .  S
C710        H714   1.084       .  S
S711        H716   1.407       .  S
S713        H717   1.407       .  S
C719        C720   1.399       .  A
C719        C724   1.396       .  A
C719        H729   1.084       .  S
C720        C725   1.474       .  S
C720        C721   1.412       .  A
C721        C722   1.401       .  A
C721        S726   1.805       .  S
C722        C723   1.405       .  A
C722        H727   1.084       .  S
C723        C724   1.415       .  A
C724        S728   1.804       .  S
C725        C730   1.405       .  A
C725        C734   1.398       .  A
S726        H742   1.405       .  S
S728        H739   1.407       .  S
C730        C731   1.400       .  A
C730        S735   1.806       .  S
C731        C732   1.410       .  A
C731        H736   1.082       .  S
C732        C733   1.416       .  A
C733        C734   1.397       .  A
C733        S737   1.793       .  S
C734        H738   1.084       .  S
S735        H740   1.407       .  S
S737        H741   1.403       .  S
C743        N744   1.361       .  A
C743        N748   1.358       .  A
C743       C1094   1.487       .  S
N744        C745   1.360       .  A
C745        N746   1.357       .  A
C745        C751   1.466       .  S
N746        C747   1.355       .  A
C747        N748   1.356       .  A
C747       C1079   1.478       .  S
C749        N750   1.360       .  A
C749        N754   1.361       .  A
C749       C1417   1.489       .  S
N750        C751   1.358       .  A
C751        N752   1.356       .  A
N752        C753   1.355       .  A
C753        N754   1.359       .  A
C753       C1031   1.482       .  S
C755        N756   1.362       .  A
C755        N760   1.362       .  A
C755        C974   1.493       .  S
N756        C757   1.361       .  A
C757        N758   1.358       .  A
C757        C765   1.472       .  S
N758        C759   1.356       .  A
C759        N760   1.359       .  A
C759        C998   1.484       .  S
C761        N762   1.357       .  A
C761        N766   1.361       .  A
C761       C1297   1.483       .  S
N762        C763   1.355       .  A
C763        N764   1.357       .  A
C763        C959   1.477       .  S
N764        C765   1.360       .  A
C765        N766   1.361       .  A
C767        N768   1.359       .  A
C767        N772   1.363       .  A
C767        C902   1.488       .  S
N768        C769   1.358       .  A
C769        N770   1.359       .  A
C769        C775   1.468       .  S
N770        C771   1.357       .  A
C771        N772   1.360       .  A
C771        C878   1.488       .  S
C773        N774   1.362       .  A
C773        N778   1.363       .  A
C773       C1234   1.495       .  S
N774        C775   1.360       .  A
C775        N776   1.354       .  A
N776        C777   1.353       .  A
C777        N778   1.363       .  A
C777        C839   1.490       .  S
O779       Mn805   2.098       .  S
O779       C2290   1.273   1_455  A
C780       C1103   1.498       .  S
C780        O813   1.272       .  A
C780        O810   1.273       .  A
O781       Mn788   2.175       .  S
O781       Mn799   2.123       .  S
O781       Mn803   2.176       .  S
O781      Mn2289   2.125       .  S
O782       Mn816   2.094       .  S
O782        C792   1.272       .  A
O783       Mn799   2.093       .  S
O783        C806   1.270       .  A
O784       Mn803   2.101       .  S
O784        C811   1.254       .  A
O785       Mn805   1.952       .  S
O785        C801   1.215       .  S
C786        C830   1.487       .  S
C786        O789   1.256       .  A
C786        O812   1.214       .  S
O787       Mn788   2.167       .  S
O787       Mn821   2.133       .  S
O787       Mn803   2.172       .  S
Mn788       O793   2.093       .  S
Mn788      O2304   2.108       .  S
Mn788      O1536   2.162   1_565  S
O790       Mn797   2.094       .  S
O790        C792   1.270       .  A
C791        C887   1.493       .  S
C791        O817   1.256       .  A
C791        O804   1.212       .  S
C792       C1055   1.495       .  S
O793        C818   1.251       .  A
O794      Mn1530   2.155   1_455  S
O794       Mn797   2.119       .  S
O794       Mn816   2.117       .  S
O794      Mn1545   2.161   1_455  S
O795       Mn799   1.966       .  S
O795       Mn821   1.963       .  S
O795        C818   1.221       .  S
C796        C935   1.484       .  S
C796        O798   1.270       .  A
Mn797       O810   2.102       .  S
Mn797      O2296   1.950   1_455  S
Mn797      O2288   1.966   1_455  S
O798       Mn821   2.091       .  S
Mn799       O815   2.090       .  S
Mn799       O809   1.957       .  S
O800       Mn805   2.101       .  S
O800       C2286   1.273   1_455  A
C801        C950   1.492       .  S
C801        O819   1.256       .  A
C802        C911   1.500       .  S
C802       O2284   1.274       .  A
C802        O815   1.269       .  A
Mn803      O2303   2.118       .  S
Mn803      O1536   2.165   1_565  S
O804      Mn2281   1.963       .  S
O804       Mn807   1.958       .  S
Mn805      O2265   2.126   1_455  S
Mn805       O823   1.967       .  S
C806        C854   1.494       .  S
C806       O2263   1.273       .  A
Mn807       O814   2.093       .  S
Mn807       O822   2.110       .  S
Mn807       O812   1.962       .  S
C808        C983   1.490       .  S
C808        O824   1.273       .  A
O809       Mn821   1.963       .  S
O809        C811   1.221       .  S
C811       C1022   1.482       .  S
O812      Mn2281   1.959       .  S
O813       Mn816   2.083       .  S
C818       C1070   1.480       .  S
O819      Mn2287   2.123   1_455  S
O820      Mn2272   2.113   1_455  S
O820        C825   1.255       .  A
Mn821       O824   2.099       .  S
O823        C825   1.220       .  S
C825       C1007   1.489       .  S
C826        C827   1.398       .  A
C826       C2315   1.398       .  A
C826       H2320   1.083       .  S
C827        C832   1.483       .  S
C827        C828   1.412       .  A
C828        C829   1.406       .  A
C828        S833   1.802       .  S
C829        C830   1.407       .  A
C829        H834   1.084       .  S
C830       C2315   1.420       .  A
C831       C2310   1.395       .  A
C831       C2314   1.421       .  A
C831        S835   1.808       .  S
C832       C2321   1.409       .  A
C832        C841   1.400       .  A
S833       H1220   1.406       .  S
S835        H846   1.407       .  S
H836       C2310   1.084       .  S
C837       C2316   1.409       .  A
C837       C1209   1.401       .  A
C837        S842   1.807       .  S
C838       C1208   1.404       .  A
C838       C2323   1.405   1_456  A
C838        H843   1.082       .  S
C839       C2322   1.406   1_554  A
C839       C1211   1.423       .  A
C840       C1210   1.421       .  A
C840        C841   1.401       .  A
C840        S844   1.803       .  S
C841        H845   1.084       .  S
S842       H1218   1.407       .  S
S844        H848   1.407       .  S
H847       S1213   1.407       .  S
H849       S1204   1.406       .  S
C850        C851   1.402       .  A
C850        C855   1.400       .  A
C850        H860   1.084       .  S
C851        C856   1.488       .  S
C851       C2336   1.412       .  A
C852       C2335   1.412   1_455  A
C852        C853   1.402       .  A
C852        S857   1.803       .  S
C853       C2338   1.411   1_455  A
C853        H858   1.083       .  S
C854       C2337   1.410       .  A
C854        C855   1.420       .  A
C855        S859   1.800       .  S
C856        C861   1.411       .  A
C856        C865   1.404       .  A
S857        H873   1.406       .  S
S859        H870   1.408       .  S
C861       C1233   1.405       .  A
C861       S2721   1.807       .  S
C862       C1232   1.406   1_554  A
C862       C1234   1.410       .  A
C862        H867   1.083       .  S
C863       C1144   1.486       .  S
C863       C1233   1.406       .  A
C863        C864   1.414       .  A
C864        C865   1.405       .  A
C864        S868   1.807       .  S
C865        H869   1.083       .  S
S866       C2716   1.806   1_554  S
S866        H871   1.407       .  S
S868        H872   1.407       .  S
C874       C2359   1.402       .  A
C874        C879   1.401       .  A
C874        H884   1.084   1_655  S
C875        C880   1.489       .  S
C875       C2358   1.403       .  A
C875        C876   1.414       .  A
C876        C877   1.401       .  A
C876        S881   1.804       .  S
C877        C878   1.405       .  A
C877        H882   1.084       .  S
C878       C2363   1.418       .  A
C879       C2362   1.416       .  A
C879        S883   1.803   1_655  S
C880        C885   1.411       .  A
C880       C2373   1.398       .  A
S881        H897   1.407       .  S
S883        H894   1.407       .  S
C885        C886   1.410       .  A
C885        S890   1.805       .  S
C886        C887   1.408       .  A
C886        H891   1.083       .  S
C887       C2372   1.423       .  A
C888       C2371   1.424       .  A
C888        C889   1.400       .  A
C888        S892   1.811       .  S
C889       C2364   1.397       .  A
C889        H893   1.083       .  S
S890        H895   1.407       .  S
S892        H896   1.406       .  S
C898       C2383   1.402       .  A
C898        C903   1.408       .  A
C898        H908   1.083       .  S
C899        C904   1.482       .  S
C899       C2382   1.402       .  A
C899        C900   1.411       .  A
C900        C901   1.398       .  A
C900        S905   1.805       .  S
C901        C902   1.406       .  A
C901        H906   1.084       .  S
C902       C2387   1.418       .  A
C903       C2386   1.419       .  A
C903        S907   1.809       .  S
C904       C2393   1.407       .  A
C904        C913   1.398       .  A
S905        H921   1.405       .  S
S907        H918   1.407       .  S
C909       C2388   1.407   1_455  A
C909        C910   1.406       .  A
C909        S914   1.806       .  S
C910       C2395   1.412   1_455  A
C910        H915   1.082       .  S
C911       C2394   1.412       .  A
C911        C912   1.425       .  A
C912        C913   1.399       .  A
C912        S916   1.802       .  S
C913        H917   1.085       .  S
S914        H919   1.404       .  S
S916        H920   1.404       .  S
C922        C923   1.400       .  A
C922        C927   1.398       .  A
C923        C928   1.482       .  S
C923        C924   1.413       .  A
C924       C1296   1.404       .  A
C924       S1300   1.804       .  S
C925       C1295   1.400   1_554  A
C925       C1297   1.406       .  A
C925        H930   1.084       .  S
C926       C1132   1.485       .  S
C926       C1296   1.406       .  A
C926        C927   1.417       .  A
C928        C933   1.409       .  A
C928        C937   1.401       .  A
S929       C1295   1.804   1_554  S
S929       H1316   1.405   1_554  S
S931        H942   1.407       .  S
C933        C934   1.404       .  A
C933        S938   1.806       .  S
C934        C935   1.406       .  A
C934        H939   1.083       .  S
C935        C936   1.414       .  A
C936        C937   1.400       .  A
S938        H943   1.407       .  S
S940        H944   1.407       .  S
H945       S1300   1.406       .  S
C946        C947   1.399       .  A
C946        C951   1.400       .  A
C947        C952   1.487       .  S
C947        C948   1.413       .  A
C948        C949   1.405       .  A
C948        S953   1.803       .  S
C949        C950   1.407       .  A
C949        H954   1.084       .  S
C950        C951   1.423       .  A
C952        C957   1.412       .  A
C952        C961   1.403       .  A
S953        H969   1.406       .  S
S955        H966   1.406       .  S
C957        C958   1.403       .  A
C957        S962   1.808       .  S
C958       C1330   1.405       .  A
C958        H963   1.083       .  S
C959       C1329   1.404   1_554  A
C959        C960   1.414       .  A
C960       C1332   1.400   1_554  A
C961       C1331   1.402       .  A
S962        H967   1.407       .  S
S964        H968   1.407       .  S
C970        C971   1.403       .  A
C970        C975   1.405       .  A
C970        H980   1.084       .  S
C971        C976   1.484       .  S
C971        C972   1.412       .  A
C972        C973   1.400       .  A
C972        S977   1.807       .  S
C973        C974   1.407       .  A
C973        H978   1.084       .  S
C974        C975   1.420       .  A
C975        S979   1.802   1_565  S
C976        C981   1.409       .  A
C976        C985   1.399       .  A
S977        H993   1.403       .  S
S979        H990   1.407       .  S
C981        C982   1.407       .  A
C981        S986   1.805       .  S
C982        C983   1.409       .  A
C982        H987   1.082       .  S
C983        C984   1.419       .  A
C984        C985   1.398       .  A
S986        H991   1.407       .  S
S988        H992   1.408       .  S
C994        C995   1.403       .  A
C994        C999   1.400       .  A
C995       C1000   1.483       .  S
C995        C996   1.412       .  A
C996        C997   1.403       .  A
C996       S1001   1.805       .  S
C997        C998   1.407       .  A
C997       H1002   1.084       .  S
C998        C999   1.415       .  A
C1000      C1005   1.407       .  A
C1000      C1009   1.403       .  A
S1001      H1017   1.405       .  S
S1003      H1014   1.407       .  S
C1005      C1006   1.400       .  A
C1005      S1010   1.807       .  S
C1006      C1007   1.408       .  A
C1006      H1011   1.083       .  S
C1007      C1008   1.418       .  A
C1008      C1009   1.405       .  A
C1008      S1012   1.801   1_565  S
C1009      H1013   1.084   1_565  S
S1010      H1015   1.407       .  S
S1012      H1016   1.400       .  S
C1018      C1019   1.402       .  A
C1018      C1023   1.402       .  A
C1018      H1028   1.084       .  S
C1019      C1024   1.476       .  S
C1019      C1020   1.410       .  A
C1020      C1021   1.394       .  A
C1020      S1025   1.806       .  S
C1021      C1022   1.406       .  A
C1021      H1026   1.084       .  S
C1022      C1023   1.418       .  A
C1023      S1027   1.803       .  S
C1024      C1029   1.408       .  A
C1024      C1033   1.400       .  A
S1025      H1041   1.404       .  S
S1027      H1038   1.402       .  S
C1029      C1030   1.402       .  A
C1029      S1034   1.806       .  S
C1030      C1402   1.404       .  A
C1030      H1035   1.083       .  S
C1031      C1401   1.406   1_554  A
C1031      C1403   1.418       .  A
C1032      C1402   1.415       .  A
C1032      C1033   1.399       .  A
C1032      S1407   1.804       .  S
C1033      H1037   1.084       .  S
S1034      H1039   1.407       .  S
S1036      C1403   1.803       .  S
S1036      H1040   1.407       .  S
C1042      C1043   1.401       .  A
C1042      C1418   1.403       .  A
C1042      H1052   1.084       .  S
C1043      C1048   1.481       .  S
C1043      C1044   1.411       .  A
C1044      C1045   1.398       .  A
C1044      S1049   1.805       .  S
C1045      C1046   1.407       .  A
C1045      H1050   1.084       .  S
C1046      C1120   1.489       .  S
C1046      C1418   1.420       .  A
C1047      C1413   1.401   1_554  A
C1047      C1417   1.420       .  A
C1047      S1051   1.802       .  S
C1048      C1053   1.407       .  A
C1048      C1057   1.399       .  A
S1049      H1065   1.405       .  S
S1051      H1062   1.408       .  S
C1053      C1054   1.403       .  A
C1053      S1058   1.807       .  S
C1054      C1055   1.412       .  A
C1054      H1059   1.082       .  S
C1055      C1056   1.423       .  A
C1056      C1057   1.399       .  A
C1056      S1060   1.802       .  S
C1057      H1061   1.084       .  S
S1058      H1063   1.407       .  S
S1060      H1064   1.408       .  S
C1066      C1067   1.402       .  A
C1066      C1071   1.401       .  A
C1066      H1076   1.084       .  S
C1067      C1072   1.479       .  S
C1067      C1068   1.409       .  A
C1068      C1069   1.396       .  A
C1068      S1073   1.804       .  S
C1069      C1070   1.406       .  A
C1069      H1074   1.084       .  S
C1070      C1071   1.417       .  A
C1071      S1075   1.803       .  S
C1072      C1077   1.408       .  A
C1072      C1081   1.402       .  A
S1073      H1089   1.406       .  S
S1075      H1086   1.402       .  S
C1077      C1078   1.403       .  A
C1077      S1082   1.805       .  S
C1078      C1079   1.406       .  A
C1078      H1083   1.083       .  S
C1079      C1080   1.413       .  A
C1080      C1081   1.398       .  A
C1080      S1084   1.803       .  S
C1081      H1085   1.084       .  S
S1082      H1087   1.407       .  S
S1084      H1088   1.407       .  S
C1090      C1091   1.399       .  A
C1090      C1095   1.395       .  A
C1090      H1100   1.085       .  S
C1091      C1096   1.478       .  S
C1091      C1092   1.411       .  A
C1092      C1093   1.402       .  A
C1092      S1097   1.805       .  S
C1093      C1094   1.409       .  A
C1093      H1098   1.084       .  S
C1094      C1095   1.419       .  A
C1095      S1099   1.803       .  S
C1096      C1101   1.405       .  A
C1096      C1105   1.398       .  A
S1097      H1113   1.405       .  S
S1099      H1110   1.408       .  S
C1101      C1102   1.401       .  A
C1101      S1106   1.807       .  S
C1102      C1103   1.413       .  A
C1102      H1107   1.082       .  S
C1103      C1104   1.422       .  A
C1104      C1105   1.402       .  A
C1104      S1108   1.804       .  S
C1105      H1109   1.083       .  S
S1106      H1111   1.407       .  S
S1108      H1112   1.406       .  S
C1114      N1115   1.361       .  A
C1114      N1119   1.355       .  A
C1114      C1465   1.479       .  S
N1115      C1116   1.360       .  A
C1116      N1117   1.359       .  A
C1116      C1122   1.468       .  S
N1117      C1118   1.356       .  A
C1118      N1119   1.354       .  A
C1118      C1450   1.478       .  S
C1120      N1121   1.362       .  A
C1120      N1125   1.361       .  A
N1121      C1122   1.361       .  A
C1122      N1123   1.357       .  A
N1123      C1124   1.354       .  A
C1124      N1125   1.357       .  A
C1124      C1402   1.475       .  S
C1126      N1127   1.362       .  A
C1126      N1131   1.361       .  A
C1126      C1345   1.488       .  S
N1127      C1128   1.361       .  A
C1128      N1129   1.359       .  A
C1128      C1136   1.474       .  S
N1129      C1130   1.357       .  A
C1130      N1131   1.358       .  A
C1130      C1369   1.485       .  S
C1132      N1133   1.358       .  A
C1132      N1137   1.363       .  A
N1133      C1134   1.356       .  A
C1134      N1135   1.357       .  A
C1134      C1330   1.484       .  S
N1135      C1136   1.361       .  A
C1136      N1137   1.363       .  A
C1138      N1139   1.360       .  A
C1138      N1143   1.364       .  A
C1138      C1273   1.498       .  S
N1139      C1140   1.358       .  A
C1140      N1141   1.357       .  A
C1140      C1146   1.470       .  S
N1141      C1142   1.357       .  A
C1142      N1143   1.361       .  A
C1142      C1249   1.488       .  S
C1144      N1145   1.361       .  A
C1144      N1149   1.362       .  A
N1145      C1146   1.359       .  A
C1146      N1147   1.356       .  A
N1147      C1148   1.356       .  A
C1148      N1149   1.362       .  A
C1148      C1210   1.489       .  S
O1150     Mn1176   2.099       .  S
O1150      C2661   1.273   1_455  A
C1151      C1474   1.487       .  S
C1151      O1184   1.271       .  A
C1151      O1181   1.275       .  A
O1152     Mn1159   2.174       .  S
O1152     Mn1170   2.121       .  S
O1152     Mn1174   2.175       .  S
O1152     Mn2660   2.123       .  S
O1153     Mn1187   2.088       .  S
O1153      C1163   1.271       .  A
O1154     Mn1170   2.093       .  S
O1154      C1177   1.270       .  A
O1155     Mn1174   2.099       .  S
O1155      C1182   1.253       .  A
O1156     Mn1176   1.950       .  S
O1156      C1172   1.211       .  S
C1157      C1201   1.483       .  S
C1157      O1160   1.255       .  A
C1157      O1183   1.213       .  S
O1158     Mn1159   2.166       .  S
O1158     Mn1192   2.128       .  S
O1158     Mn1174   2.167       .  S
Mn1159     O1164   2.092       .  S
Mn1159     O2675   2.109       .  S
Mn1159     O1907   2.155   1_565  S
O1161     Mn1168   2.097       .  S
O1161      C1163   1.271       .  A
C1162      C1258   1.493       .  S
C1162      O1188   1.256       .  A
C1162      O1175   1.212       .  S
C1163      C1426   1.488       .  S
O1164      C1189   1.250       .  A
O1165     Mn1901   2.157   1_455  S
O1165     Mn1168   2.119       .  S
O1165     Mn1187   2.116       .  S
O1165     Mn1916   2.166   1_455  S
O1166     Mn1170   1.958       .  S
O1166     Mn1192   1.958       .  S
O1166      C1189   1.219       .  S
C1167      C1306   1.484       .  S
C1167      O1169   1.269       .  A
Mn1168     O1181   2.110       .  S
Mn1168     O2667   1.950   1_455  S
Mn1168     O2659   1.970   1_455  S
O1169     Mn1192   2.080       .  S
Mn1170     O1186   2.085       .  S
Mn1170     O1180   1.953       .  S
O1171     Mn1176   2.104       .  S
O1171      C2657   1.274   1_455  A
C1172      C1321   1.488       .  S
C1172      O1190   1.255       .  A
C1173      C1282   1.493       .  S
C1173      O2655   1.273       .  A
C1173      O1186   1.268       .  A
Mn1174     O2674   2.112       .  S
Mn1174     O1907   2.164   1_565  S
O1175     Mn2652   1.963       .  S
O1175     Mn1178   1.960       .  S
Mn1176     O2636   2.122   1_455  S
Mn1176     O1194   1.959       .  S
C1177      C1225   1.497       .  S
C1177      O2634   1.274       .  A
Mn1178     O1185   2.093       .  S
Mn1178     O1193   2.114       .  S
Mn1178     O1183   1.955       .  S
C1179      C1354   1.484       .  S
C1179      O1195   1.273       .  A
O1180     Mn1192   1.960       .  S
O1180      C1182   1.220       .  S
C1182      C1393   1.479       .  S
O1183     Mn2652   1.957       .  S
O1184     Mn1187   2.079       .  S
C1189      C1441   1.477       .  S
O1190     Mn2658   2.125   1_455  S
O1191     Mn2643   2.118   1_455  S
O1191      C1196   1.255       .  A
Mn1192     O1195   2.096       .  S
O1194      C1196   1.217       .  S
C1196      C1378   1.488       .  S
C1197      C1198   1.398       .  A
C1197      C2686   1.396       .  A
C1197      H2691   1.083       .  S
C1198      C1203   1.482       .  S
C1198      C1199   1.413       .  A
C1199      C1200   1.404       .  A
C1199      S1204   1.802       .  S
C1200      C1201   1.406       .  A
C1200      H1205   1.083       .  S
C1201      C2686   1.420       .  A
C1202      C2681   1.398       .  A
C1202      C2685   1.423       .  A
C1202      S1206   1.811       .  S
C1203      C2692   1.410       .  A
C1203      C1212   1.399   1_556  A
S1206      H1217   1.407       .  S
H1207      C2681   1.083       .  S
C1208      C2687   1.409       .  A
C1208      S1213   1.806       .  S
C1209      C2694   1.406   1_455  A
C1209      H1214   1.081       .  S
C1210      C2693   1.407       .  A
C1211      C1212   1.400       .  A
C1211      S1215   1.803       .  S
C1212      H1216   1.084       .  S
S1215      H1219   1.407       .  S
C1221      C1222   1.400       .  A
C1221      C1226   1.401       .  A
C1221      H1231   1.084       .  S
C1222      C1227   1.485       .  S
C1222      C2707   1.410       .  A
C1223      C2706   1.411   1_455  A
C1223      C1224   1.402       .  A
C1223      S1228   1.802       .  S
C1224      C2709   1.411   1_455  A
C1224      H1229   1.084       .  S
C1225      C2708   1.410       .  A
C1225      C1226   1.422       .  A
C1226      S1230   1.800       .  S
C1227      C1232   1.407       .  A
C1227      C1236   1.400       .  A
S1228      H1244   1.406       .  S
S1230      H1241   1.405       .  S
C1232      S2350   1.806   1_556  S
C1233      H1238   1.083       .  S
C1234      C1235   1.419   1_554  A
C1235      C1236   1.404       .  A
C1235      S1239   1.808       .  S
C1236      H1240   1.083       .  S
S1237      C2345   1.807       .  S
S1237      H1242   1.407       .  S
S1239      H1243   1.407       .  S
C1245      C2730   1.403       .  A
C1245      C1250   1.402       .  A
C1245      H1255   1.084   1_655  S
C1246      C1251   1.489       .  S
C1246      C2729   1.403       .  A
C1246      C1247   1.414       .  A
C1247      C1248   1.402       .  A
C1247      S1252   1.805       .  S
C1248      C1249   1.405       .  A
C1248      H1253   1.084       .  S
C1249      C2734   1.418       .  A
C1250      C2733   1.414       .  A
C1250      S1254   1.804   1_655  S
C1251      C1256   1.411       .  A
C1251      C2744   1.398       .  A
S1252      H1268   1.407       .  S
S1254      H1265   1.407       .  S
C1256      C1257   1.409       .  A
C1256      S1261   1.805       .  S
C1257      C1258   1.408       .  A
C1257      H1262   1.082       .  S
C1258      C2743   1.424       .  A
C1259      C2742   1.422       .  A
C1259      C1260   1.401       .  A
C1259      S1263   1.811   1_655  S
C1260      C2735   1.398       .  A
C1260      H1264   1.083       .  S
S1261      H1266   1.407       .  S
S1263      H1267   1.406       .  S
C1269      C2754   1.403       .  A
C1269      C1274   1.403       .  A
C1269      H1279   1.084       .  S
C1270      C1275   1.482       .  S
C1270      C2753   1.400       .  A
C1270      C1271   1.409       .  A
C1271      C1272   1.398       .  A
C1271      S1276   1.805       .  S
C1272      C1273   1.409       .  A
C1272      H1277   1.083       .  S
C1273      C2758   1.424       .  A
C1274      C2757   1.418       .  A
C1274      S1278   1.803       .  S
C1275      C2764   1.408       .  A
C1275      C1284   1.398       .  A
S1276      H1292   1.405       .  S
S1278      H1289   1.407       .  S
C1280      C2759   1.408   1_455  A
C1280      C1281   1.408       .  A
C1280      S1285   1.806       .  S
C1281      C2766   1.413   1_455  A
C1281      H1286   1.082       .  S
C1282      C2765   1.409       .  A
C1282      C1283   1.422       .  A
C1283      C1284   1.398       .  A
C1283      S1287   1.801       .  S
C1284      H1288   1.084       .  S
S1285      H1290   1.406       .  S
S1287      H1291   1.408       .  S
C1293      C1294   1.400       .  A
C1293      C1298   1.397       .  A
C1294      C1299   1.476       .  S
C1294      C1295   1.410       .  A
C1296      H1301   1.084       .  S
C1297      C1298   1.418   1_554  A
C1299      C1304   1.407       .  A
C1299      C1308   1.399       .  A
S1302      H1313   1.408       .  S
C1304      C1305   1.402       .  A
C1304      S1309   1.806       .  S
C1305      C1306   1.408       .  A
C1305      H1310   1.083       .  S
C1306      C1307   1.414       .  A
C1307      C1308   1.398       .  A
S1309      H1314   1.407       .  S
S1311      H1315   1.406       .  S
C1317      C1318   1.398       .  A
C1317      C1322   1.398       .  A
C1318      C1323   1.483       .  S
C1318      C1319   1.412       .  A
C1319      C1320   1.403       .  A
C1319      S1324   1.803       .  S
C1320      C1321   1.406       .  A
C1320      H1325   1.084       .  S
C1321      C1322   1.424       .  A
C1323      C1328   1.411       .  A
C1323      C1332   1.402       .  A
S1324      H1340   1.406   1_556  S
S1326      H1337   1.408       .  S
C1328      C1329   1.402       .  A
C1328      S1333   1.808       .  S
C1329      H1334   1.083       .  S
C1330      C1331   1.416       .  A
S1333      H1338   1.407       .  S
S1335      H1339   1.407       .  S
C1341      C1342   1.402       .  A
C1341      C1346   1.404       .  A
C1341      H1351   1.084   1_565  S
C1342      C1347   1.479       .  S
C1342      C1343   1.410       .  A
C1343      C1344   1.398       .  A
C1343      S1348   1.806       .  S
C1344      C1345   1.407       .  A
C1344      H1349   1.084       .  S
C1345      C1346   1.418       .  A
C1346      S1350   1.802   1_565  S
C1347      C1352   1.408       .  A
C1347      C1356   1.399   1_565  A
S1348      H1364   1.404       .  S
S1350      H1361   1.407       .  S
C1352      C1353   1.404       .  A
C1352      S1357   1.805       .  S
C1353      C1354   1.407       .  A
C1353      H1358   1.083       .  S
C1354      C1355   1.419   1_565  A
C1355      C1356   1.398       .  A
S1357      H1362   1.407       .  S
S1359      H1363   1.408       .  S
C1365      C1366   1.403       .  A
C1365      C1370   1.399   1_565  A
C1366      C1371   1.483       .  S
C1366      C1367   1.412       .  A
C1367      C1368   1.401       .  A
C1367      S1372   1.806       .  S
C1368      C1369   1.407       .  A
C1368      H1373   1.084       .  S
C1369      C1370   1.416   1_565  A
C1371      C1376   1.407       .  A
C1371      C1380   1.404       .  A
S1372      H1388   1.403       .  S
S1374      H1385   1.407       .  S
C1376      C1377   1.399       .  A
C1376      S1381   1.808       .  S
C1377      C1378   1.409       .  A
C1377      H1382   1.082       .  S
C1378      C1379   1.416       .  A
C1379      C1380   1.404       .  A
C1379      S1383   1.799   1_565  S
C1380      H1384   1.084       .  S
S1381      H1386   1.407       .  S
S1383      H1387   1.402       .  S
C1389      C1390   1.402       .  A
C1389      C1394   1.401       .  A
C1389      H1399   1.084       .  S
C1390      C1395   1.478       .  S
C1390      C1391   1.411       .  A
C1391      C1392   1.394       .  A
C1391      S1396   1.806       .  S
C1392      C1393   1.406       .  A
C1392      H1397   1.084       .  S
C1393      C1394   1.417       .  A
C1394      S1398   1.803       .  S
C1395      C1400   1.410       .  A
C1395      C1404   1.399       .  A
S1396      H1412   1.405       .  S
S1398      H1409   1.401       .  S
C1400      C1401   1.402       .  A
C1400      S1405   1.807       .  S
C1401      H1406   1.083       .  S
C1403      C1404   1.398   1_554  A
C1404      H1408   1.084   1_556  S
S1405      H1410   1.407       .  S
S1407      H1411   1.407       .  S
C1413      C1414   1.400       .  A
C1413      H1423   1.084   1_556  S
C1414      C1419   1.478       .  S
C1414      C1415   1.411       .  A
C1415      C1416   1.398       .  A
C1415      S1420   1.806       .  S
C1416      C1417   1.407   1_556  A
C1416      H1421   1.084       .  S
C1418      S1422   1.802       .  S
C1419      C1424   1.407       .  A
C1419      C1428   1.399       .  A
S1420      H1436   1.403       .  S
S1422      H1433   1.407       .  S
C1424      C1425   1.403       .  A
C1424      S1429   1.806       .  S
C1425      C1426   1.410       .  A
C1425      H1430   1.082       .  S
C1426      C1427   1.420       .  A
C1427      C1428   1.398       .  A
C1427      S1431   1.802       .  S
C1428      H1432   1.084       .  S
S1429      H1434   1.407       .  S
S1431      H1435   1.408       .  S
C1437      C1438   1.403       .  A
C1437      C1442   1.400       .  A
C1437      H1447   1.084       .  S
C1438      C1443   1.478       .  S
C1438      C1439   1.410       .  A
C1439      C1440   1.394       .  A
C1439      S1444   1.805       .  S
C1440      C1441   1.405       .  A
C1440      H1445   1.084       .  S
C1441      C1442   1.417       .  A
C1442      S1446   1.804       .  S
C1443      C1448   1.409       .  A
C1443      C1452   1.401       .  A
S1444      H1460   1.406       .  S
S1446      H1457   1.401       .  S
C1448      C1449   1.403       .  A
C1448      S1453   1.806       .  S
C1449      C1450   1.406       .  A
C1449      H1454   1.083       .  S
C1450      C1451   1.415       .  A
C1451      C1452   1.395       .  A
C1451      S1455   1.804       .  S
C1452      H1456   1.084       .  S
S1453      H1458   1.407       .  S
S1455      H1459   1.407       .  S
C1461      C1462   1.399       .  A
C1461      C1466   1.396       .  A
C1461      H1471   1.084       .  S
C1462      C1467   1.472       .  S
C1462      C1463   1.411       .  A
C1463      C1464   1.399       .  A
C1463      S1468   1.806       .  S
C1464      C1465   1.405       .  A
C1464      H1469   1.084       .  S
C1465      C1466   1.418       .  A
C1466      S1470   1.804       .  S
C1467      C1472   1.405       .  A
C1467      C1476   1.397       .  A
S1468      H1484   1.404       .  S
S1470      H1481   1.407       .  S
C1472      C1473   1.401       .  A
C1472      S1477   1.806       .  S
C1473      C1474   1.410       .  A
C1473      H1478   1.082       .  S
C1474      C1475   1.416       .  A
C1475      C1476   1.396       .  A
C1475      S1479   1.792       .  S
C1476      H1480   1.084       .  S
S1477      H1482   1.407       .  S
S1479      H1483   1.403       .  S
C1485      N1486   1.362       .  A
C1485      N1490   1.357       .  A
C1485      C1836   1.493       .  S
N1486      C1487   1.360       .  A
C1487      N1488   1.356       .  A
C1487      C1493   1.465       .  S
N1488      C1489   1.354       .  A
C1489      N1490   1.355       .  A
C1489      C1821   1.477       .  S
C1491      N1492   1.358       .  A
C1491      N1496   1.361       .  A
C1491      C2159   1.489       .  S
N1492      C1493   1.357       .  A
C1493      N1494   1.357       .  A
N1494      C1495   1.355       .  A
C1495      N1496   1.358       .  A
C1495      C1773   1.480       .  S
C1497      N1498   1.360       .  A
C1497      N1502   1.361       .  A
C1497      C1716   1.481       .  S
N1498      C1499   1.359       .  A
C1499      N1500   1.357       .  A
C1499      C1507   1.469       .  S
N1500      C1501   1.357       .  A
C1501      N1502   1.360       .  A
C1501      C1740   1.480       .  S
C1503      N1504   1.357       .  A
C1503      N1508   1.360       .  A
C1503      C2039   1.479       .  S
N1504      C1505   1.355       .  A
C1505      N1506   1.357       .  A
C1505      C1701   1.476       .  S
N1506      C1507   1.360       .  A
C1507      N1508   1.361       .  A
C1509      N1510   1.360       .  A
C1509      N1514   1.363       .  A
C1509      C1644   1.489       .  S
N1510      C1511   1.358       .  A
C1511      N1512   1.357       .  A
C1511      C1517   1.469       .  S
N1512      C1513   1.356       .  A
C1513      N1514   1.361       .  A
C1513      C1620   1.488       .  S
C1515      N1516   1.362       .  A
C1515      N1520   1.361       .  A
C1515      C1976   1.491       .  S
N1516      C1517   1.360       .  A
C1517      N1518   1.356       .  A
N1518      C1519   1.355       .  A
C1519      N1520   1.360       .  A
C1519      C1581   1.484       .  S
O1521     Mn1547   2.096       .  S
C1522      C1845   1.493       .  S
C1522      O1555   1.272       .  A
C1522      O1552   1.272       .  A
O1523     Mn1530   2.174       .  S
O1523     Mn1541   2.123       .  S
O1523     Mn1545   2.172       .  S
O1524     Mn1558   2.099       .  S
O1524      C1534   1.273       .  A
O1525     Mn1541   2.089       .  S
O1525      C1548   1.270       .  A
O1526     Mn1545   2.090       .  S
O1526      C1553   1.253       .  A
O1527     Mn2300   1.951       .  S
O1527     Mn1547   1.956       .  S
O1527      C1543   1.215       .  S
C1528      C1572   1.491       .  S
C1528      O1531   1.257       .  A
C1528      O1554   1.212       .  S
O1529     Mn2291   2.111       .  S
O1529     Mn1530   2.165       .  S
O1529     Mn1563   2.132       .  S
O1529     Mn1545   2.171       .  S
Mn1530     O2301   2.118       .  S
Mn1530     O1535   2.087       .  S
O1531     Mn2287   2.135   1_545  S
O1532     Mn1539   2.087       .  S
O1532      C1534   1.269       .  A
C1533      C1629   1.488       .  S
C1533      O1559   1.256       .  A
C1533      O1546   1.213       .  S
C1534      C1797   1.487       .  S
O1535      C1560   1.249       .  A
O1536     Mn1539   2.117       .  S
O1536     Mn1558   2.119       .  S
O1537     Mn1541   1.957       .  S
O1537     Mn1563   1.955       .  S
O1537      C1560   1.220       .  S
C1538      C1677   1.483       .  S
C1538      O2306   1.274       .  A
C1538      O1540   1.268       .  A
Mn1539     O1552   2.097       .  S
O1540     Mn1563   2.079       .  S
Mn1541     O1557   2.084       .  S
Mn1541     O1551   1.962       .  S
O1542     Mn1547   2.099       .  S
C1543      C1692   1.492       .  S
C1543      O1561   1.255       .  A
C1544      C1653   1.496       .  S
C1544      O1557   1.268       .  A
Mn1545     O2273   2.128       .  S
O1546     Mn1549   1.959       .  S
Mn1547     O1565   1.960       .  S
C1548      C1596   1.495       .  S
Mn1549     O1556   2.093       .  S
Mn1549     O1564   2.116       .  S
Mn1549     O2271   2.113   1_545  S
Mn1549     O1554   1.957       .  S
C1550      C1725   1.493       .  S
C1550      O2298   1.270       .  A
C1550      O1566   1.273       .  A
O1551     Mn1563   1.964       .  S
O1551      C1553   1.223       .  S
C1553      C1764   1.480       .  S
O1555     Mn1558   2.086       .  S
O1556      C2292   1.271   1_545  A
Mn1558     O2269   1.952   1_545  S
Mn1558     O2307   1.965   1_545  S
O1559     Mn2272   2.123   1_545  S
C1560      C1812   1.475       .  S
O1562      C1567   1.254       .  A
Mn1563     O1566   2.098       .  S
O1564      C2280   1.275   1_545  A
O1565     Mn2300   1.961       .  S
O1565      C1567   1.219       .  S
C1567      C1749   1.486       .  S
C1568      C1569   1.397   1_655  A
C1569      C1574   1.485       .  S
C1569      C1570   1.413       .  A
C1570      C1571   1.408       .  A
C1570      S1575   1.803       .  S
C1571      C1572   1.408   1_455  A
C1571      H1576   1.083       .  S
C1573      S1577   1.808       .  S
C1574      C1583   1.401   1_455  A
S1575      H1962   1.406       .  S
S1577      H1588   1.406       .  S
C1579      C1951   1.406       .  A
C1579      S1584   1.806       .  S
C1580      C1950   1.402       .  A
C1580      H1585   1.082       .  S
C1581      C1953   1.419       .  A
C1582      C1952   1.418       .  A
C1582      C1583   1.401       .  A
C1582      S1586   1.803       .  S
C1583      H1587   1.084       .  S
S1584      H1960   1.407       .  S
S1586      H1590   1.407       .  S
H1589      S1955   1.407       .  S
H1591      S1946   1.405   1_554  S
C1592      C1593   1.401       .  A
C1592      C1597   1.400       .  A
C1592      H1602   1.085       .  S
C1593      C1598   1.488       .  S
C1594      C1595   1.402       .  A
C1594      S1599   1.802       .  S
C1595      H1600   1.084       .  S
C1596      C1597   1.422       .  A
C1597      S1601   1.800       .  S
C1598      C1603   1.410       .  A
C1598      C1607   1.403   1_655  A
S1599      H1615   1.406       .  S
S1601      H1612   1.408       .  S
C1603      C1975   1.406       .  A
C1604      C1974   1.405   1_554  A
C1604      C1976   1.408       .  A
C1604      H1609   1.083       .  S
C1605      C1886   1.489       .  S
C1605      C1975   1.408       .  A
C1605      C1606   1.416   1_655  A
C1606      C1607   1.404       .  A
C1606      S1610   1.808       .  S
C1607      H1611   1.083       .  S
S1608      H1613   1.407       .  S
S1610      H1614   1.406       .  S
C1616      C1621   1.403       .  A
C1616      H1626   1.084       .  S
C1617      C1622   1.485       .  S
C1617      C1618   1.413       .  A
C1618      C1619   1.401       .  A
C1618      S1623   1.805       .  S
C1619      C1620   1.406       .  A
C1619      H1624   1.084       .  S
C1621      S1625   1.803       .  S
C1622      C1627   1.410       .  A
S1623      H1639   1.407       .  S
S1625      H1636   1.407       .  S
C1627      C1628   1.408       .  A
C1627      S1632   1.805       .  S
C1628      C1629   1.407       .  A
C1628      H1633   1.083       .  S
C1630      C1631   1.400       .  A
C1630      S1634   1.813       .  S
C1631      H1635   1.083       .  S
S1632      H1637   1.407       .  S
S1634      H1638   1.406       .  S
C1640      C1645   1.403       .  A
C1640      H1650   1.084       .  S
C1641      C1646   1.480       .  S
C1641      C1642   1.410       .  A
C1642      C1643   1.398       .  A
C1642      S1647   1.805   1_655  S
C1643      C1644   1.406       .  A
C1643      H1648   1.084   1_655  S
C1645      S1649   1.799       .  S
C1646      C1655   1.397       .  A
S1647      H1663   1.405   1_455  S
S1649      H1660   1.408       .  S
C1651      C1652   1.404       .  A
C1651      S1656   1.806       .  S
C1652      H1657   1.082       .  S
C1653      C1654   1.424       .  A
C1654      C1655   1.398       .  A
C1654      S1658   1.802       .  S
C1655      H1659   1.084       .  S
S1656      H1661   1.404       .  S
S1658      H1662   1.404       .  S
C1664      C1665   1.400       .  A
C1664      C1669   1.397       .  A
C1664      H2416   1.084       .  S
C1665      C1670   1.480       .  S
C1665      C1666   1.412       .  A
C1666      C2038   1.403       .  A
C1666      S2042   1.805       .  S
C1667      C2037   1.403   1_554  A
C1667      C2039   1.406       .  A
C1667      H1672   1.084       .  S
C1668      C1874   1.488       .  S
C1668      C2038   1.408       .  A
C1668      C1669   1.418       .  A
C1669      S2415   1.803       .  S
C1670      C1675   1.409       .  A
C1670      C1679   1.400       .  A
S1671      C2037   1.806   1_554  S
S1671      H2058   1.404   1_554  S
S1673      C2411   1.803   1_545  S
S1673      H1684   1.408       .  S
H1674      C2406   1.084       .  S
C1675      C1676   1.403       .  A
C1675      S1680   1.806       .  S
C1676      C1677   1.407       .  A
C1676      H1681   1.083       .  S
C1677      C1678   1.413       .  A
C1678      C1679   1.399       .  A
C1678      S2424   1.794       .  S
C1679      H2425   1.084       .  S
S1680      H1685   1.407       .  S
S1682      C2420   1.797   1_545  S
S1682      H1686   1.407   1_545  S
H1683      C2421   1.083   1_545  S
H1687      S2042   1.405       .  S
C1688      C1689   1.398       .  A
C1688      C1693   1.394       .  A
C1688      H2440   1.084       .  S
C1689      C1694   1.487       .  S
C1689      C1690   1.415       .  A
C1690      C1691   1.407       .  A
C1690      S1695   1.804       .  S
C1691      C1692   1.408       .  A
C1691      H1696   1.084       .  S
C1692      C1693   1.421       .  A
C1693      S2439   1.802       .  S
C1694      C1699   1.412       .  A
C1694      C1703   1.403       .  A
S1695      H1711   1.405       .  S
S1697      C2435   1.812   1_545  S
S1697      H1708   1.407       .  S
H1698      C2430   1.083       .  S
C1699      C1700   1.403       .  A
C1699      S1704   1.808       .  S
C1700      C2072   1.404       .  A
C1700      H1705   1.083       .  S
C1701      C2071   1.403   1_554  A
C1701      C1702   1.414       .  A
C1702      C2074   1.401   1_554  A
C1702      S2448   1.803       .  S
C1703      C2073   1.402       .  A
C1703      H2449   1.084       .  S
S1704      H1709   1.406       .  S
S1706      C2444   1.803   1_545  S
S1706      H1710   1.407       .  S
H1707      C2445   1.084   1_545  S
C1712      C1713   1.403       .  A
C1712      C1717   1.402       .  A
C1712      H1722   1.084       .  S
C1713      C1718   1.483       .  S
C1713      C1714   1.414       .  A
C1714      C1715   1.400       .  A
C1714      S1719   1.805       .  S
C1715      C1716   1.404       .  A
C1715      H1720   1.084       .  S
C1716      C1717   1.415       .  A
C1717      S1721   1.803       .  S
C1718      C1723   1.409       .  A
C1718      C1727   1.399       .  A
S1719      H1735   1.405       .  S
S1721      H1732   1.407       .  S
C1723      C1724   1.405       .  A
C1723      S1728   1.806       .  S
C1724      C1725   1.410       .  A
C1724      H1729   1.082       .  S
C1725      C1726   1.422       .  A
C1726      C1727   1.398       .  A
C1726      S2472   1.803       .  S
C1727      H2473   1.085       .  S
S1728      H1733   1.407       .  S
S1730      C2468   1.803       .  S
S1730      H1734   1.408       .  S
H1731      C2469   1.084       .  S
C1736      C1737   1.403       .  A
C1736      C1741   1.399       .  A
C1736      H2488   1.084       .  S
C1737      C1742   1.479       .  S
C1737      C1738   1.413       .  A
C1738      C1739   1.401       .  A
C1738      S1743   1.807       .  S
C1739      C1740   1.405       .  A
C1739      H1744   1.084       .  S
C1740      C1741   1.414       .  A
C1741      S2487   1.803       .  S
C1742      C1747   1.406       .  A
C1742      C1751   1.403       .  A
S1743      H1759   1.402       .  S
S1745      C2483   1.803       .  S
S1745      H1756   1.407       .  S
H1746      C2478   1.084       .  S
C1747      C1748   1.398       .  A
C1747      S1752   1.807       .  S
C1748      C1749   1.408       .  A
C1748      H1753   1.083       .  S
C1749      C1750   1.418       .  A
C1750      C1751   1.404       .  A
C1750      S1754   1.801       .  S
C1751      H1755   1.084       .  S
S1752      H1757   1.407       .  S
S1754      H1758   1.401       .  S
C1760      C1761   1.401       .  A
C1760      C1765   1.401       .  A
C1760      H1770   1.084       .  S
C1761      C1766   1.476       .  S
C1761      C1762   1.410       .  A
C1762      C1763   1.394       .  A
C1762      S1767   1.805       .  S
C1763      C1764   1.406       .  A
C1763      H1768   1.084       .  S
C1764      C1765   1.418       .  A
C1765      S1769   1.802       .  S
C1766      C1771   1.409       .  A
C1766      C1775   1.400       .  A
S1767      H1783   1.405       .  S
S1769      H1780   1.404       .  S
C1771      C1772   1.401       .  A
C1771      S1776   1.807       .  S
C1772      C2144   1.403       .  A
C1772      H1777   1.083       .  S
C1773      C2143   1.405   1_554  A
C1773      C2145   1.417       .  A
C1774      C2144   1.416       .  A
C1774      C1775   1.399       .  A
C1774      S2149   1.804       .  S
C1775      H1779   1.084       .  S
S1776      H1781   1.406       .  S
S1778      C2145   1.803       .  S
S1778      H1782   1.407       .  S
C1784      C1785   1.400       .  A
C1784      C2160   1.403       .  A
C1784      H1794   1.084       .  S
C1785      C1790   1.480       .  S
C1785      C1786   1.410       .  A
C1786      C1787   1.398       .  A
C1786      S1791   1.805       .  S
C1787      C1788   1.408       .  A
C1787      H1792   1.084       .  S
C1788      C1862   1.493       .  S
C1788      C2160   1.423       .  A
C1789      C2155   1.401       .  A
C1789      C2159   1.421       .  A
C1789      S1793   1.802       .  S
C1790      C1795   1.408       .  A
C1790      C1799   1.399       .  A
S1791      H1807   1.405       .  S
S1793      H1804   1.408       .  S
C1795      C1796   1.405       .  A
C1795      S1800   1.806       .  S
C1796      C1797   1.409       .  A
C1796      H1801   1.083       .  S
C1797      C1798   1.420       .  A
C1798      C1799   1.397       .  A
C1798      S1802   1.803       .  S
C1799      H1803   1.084       .  S
S1800      H1805   1.407       .  S
S1802      H1806   1.408       .  S
C1808      C1809   1.402       .  A
C1808      C1813   1.400       .  A
C1808      H1818   1.084       .  S
C1809      C1814   1.475       .  S
C1809      C1810   1.408       .  A
C1810      C1811   1.392       .  A
C1810      S1815   1.804       .  S
C1811      C1812   1.404       .  A
C1811      H1816   1.084       .  S
C1812      C1813   1.417       .  A
C1813      S1817   1.804       .  S
C1814      C1819   1.407       .  A
C1814      C1823   1.401       .  A
S1815      H1831   1.406       .  S
S1817      H1828   1.401       .  S
C1819      C1820   1.402       .  A
C1819      S1824   1.806       .  S
C1820      C1821   1.407       .  A
C1820      H1825   1.083       .  S
C1821      C1822   1.415       .  A
C1822      C1823   1.396       .  A
C1822      S1826   1.803       .  S
C1823      H1827   1.084       .  S
S1824      H1829   1.407       .  S
S1826      H1830   1.407       .  S
C1832      C1833   1.399       .  A
C1832      C1837   1.394       .  A
C1832      H1842   1.085       .  S
C1833      C1838   1.480       .  S
C1833      C1834   1.411       .  A
C1834      C1835   1.402       .  A
C1834      S1839   1.805       .  S
C1835      C1836   1.411       .  A
C1835      H1840   1.084       .  S
C1836      C1837   1.422       .  A
C1837      S1841   1.803       .  S
C1838      C1843   1.407       .  A
C1838      C1847   1.400       .  A
S1839      H1855   1.405       .  S
S1841      H1852   1.408       .  S
C1843      C1844   1.402       .  A
C1843      S1848   1.807       .  S
C1844      C1845   1.412       .  A
C1844      H1849   1.082       .  S
C1845      C1846   1.420       .  A
C1846      C1847   1.400       .  A
C1846      S1850   1.807       .  S
C1847      H1851   1.083       .  S
S1848      H1853   1.407       .  S
S1850      H1854   1.407       .  S
C1856      N1857   1.358       .  A
C1856      N1861   1.359       .  A
C1856      C2207   1.483       .  S
N1857      C1858   1.358       .  A
C1858      N1859   1.358       .  A
C1858      C1864   1.464       .  S
N1859      C1860   1.356       .  A
C1860      N1861   1.357       .  A
C1860      C2192   1.482       .  S
C1862      N1863   1.359       .  A
C1862      N1867   1.362       .  A
N1863      C1864   1.359       .  A
C1864      N1865   1.354       .  A
N1865      C1866   1.354       .  A
C1866      N1867   1.359       .  A
C1866      C2144   1.475       .  S
C1868      N1869   1.363       .  A
C1868      N1873   1.362       .  A
C1868      C2087   1.494       .  S
N1869      C1870   1.362       .  A
C1870      N1871   1.359       .  A
C1870      C1878   1.473       .  S
N1871      C1872   1.357       .  A
C1872      N1873   1.359       .  A
C1872      C2111   1.486       .  S
C1874      N1875   1.359       .  A
C1874      N1879   1.362       .  A
N1875      C1876   1.357       .  A
C1876      N1877   1.357       .  A
C1876      C2072   1.483       .  S
N1877      C1878   1.360       .  A
C1878      N1879   1.361       .  A
C1880      N1881   1.361       .  A
C1880      N1885   1.363       .  A
C1880      C2015   1.491       .  S
N1881      C1882   1.360       .  A
C1882      N1883   1.358       .  A
C1882      C1888   1.470       .  S
N1883      C1884   1.357       .  A
C1884      N1885   1.360       .  A
C1884      C1991   1.491       .  S
C1886      N1887   1.362       .  A
C1886      N1891   1.362       .  A
N1887      C1888   1.359       .  A
C1888      N1889   1.357       .  A
N1889      C1890   1.357       .  A
C1890      N1891   1.361       .  A
C1890      C1952   1.487       .  S
O1892     Mn1918   2.106       .  S
C1893      C2216   1.496       .  S
C1893      O1926   1.271       .  A
C1893      O1923   1.273       .  A
O1894     Mn1901   2.176       .  S
O1894     Mn1912   2.125       .  S
O1894     Mn1916   2.179       .  S
O1895     Mn1929   2.090       .  S
O1895      C1905   1.271       .  A
O1896     Mn1912   2.095       .  S
O1896      C1919   1.270       .  A
O1897     Mn1916   2.099       .  S
O1897      C1924   1.254       .  A
O1898     Mn2671   1.950       .  S
O1898     Mn1918   1.953       .  S
O1898      C1914   1.213       .  S
C1899      C1943   1.485       .  S
C1899      O1902   1.256       .  A
C1899      O1925   1.211       .  S
O1900     Mn2662   2.116       .  S
O1900     Mn1901   2.165       .  S
O1900     Mn1934   2.130       .  S
O1900     Mn1916   2.173       .  S
Mn1901     O2672   2.120       .  S
Mn1901     O1906   2.087       .  S
O1902     Mn2658   2.127   1_545  S
O1903     Mn1910   2.085       .  S
O1903      C1905   1.268       .  A
C1904      C2000   1.491       .  S
C1904      O1930   1.255       .  A
C1904      O1917   1.214       .  S
C1905      C2168   1.488       .  S
O1906      C1931   1.249       .  A
O1907     Mn1910   2.119       .  S
O1907     Mn1929   2.120       .  S
O1908     Mn1912   1.965       .  S
O1908     Mn1934   1.960       .  S
O1908      C1931   1.222       .  S
C1909      C2048   1.493       .  S
C1909      O2677   1.276       .  A
C1909      O1911   1.268       .  A
Mn1910     O1923   2.102       .  S
O1911     Mn1934   2.077       .  S
Mn1912     O1928   2.090       .  S
Mn1912     O1922   1.960       .  S
O1913     Mn1918   2.103       .  S
C1914      C2063   1.489       .  S
C1914      O1932   1.254       .  A
C1915      C2024   1.500       .  S
C1915      O1928   1.269       .  A
Mn1916     O2644   2.137       .  S
O1917     Mn1920   1.956       .  S
Mn1918     O1936   1.965       .  S
C1919      C1967   1.497       .  S
Mn1920     O1927   2.086       .  S
Mn1920     O1935   2.110       .  S
Mn1920     O2642   2.115   1_545  S
Mn1920     O1925   1.954       .  S
C1921      C2096   1.495       .  S
C1921      O2669   1.270       .  A
C1921      O1937   1.274       .  A
O1922     Mn1934   1.963       .  S
O1922      C1924   1.223       .  S
C1924      C2135   1.480       .  S
O1926     Mn1929   2.082       .  S
O1927      C2663   1.269   1_545  A
Mn1929     O2640   1.949   1_545  S
Mn1929     O2678   1.964   1_545  S
O1930     Mn2643   2.121   1_545  S
C1931      C2183   1.481       .  S
O1933      C1938   1.256       .  A
Mn1934     O1937   2.103       .  S
O1935      C2651   1.273   1_545  A
O1936     Mn2671   1.961       .  S
O1936      C1938   1.218       .  S
C1938      C2120   1.492       .  S
C1939      C1940   1.397   1_655  A
C1940      C1945   1.479       .  S
C1940      C1941   1.413       .  A
C1941      C1942   1.405       .  A
C1941      S1946   1.804       .  S
C1942      C1943   1.406   1_455  A
C1942      H1947   1.084       .  S
C1944      S1948   1.806       .  S
C1945      C1954   1.400   1_456  A
S1948      H1959   1.407       .  S
C1950      S1955   1.805       .  S
C1951      H1956   1.082       .  S
C1953      C1954   1.399       .  A
C1953      S1957   1.803       .  S
C1954      H1958   1.084       .  S
S1957      H1961   1.407       .  S
C1963      C1964   1.401       .  A
C1963      C1968   1.401       .  A
C1963      H1973   1.084       .  S
C1964      C1969   1.486       .  S
C1965      C1966   1.403       .  A
C1965      S1970   1.803       .  S
C1966      H1971   1.084       .  S
C1967      C1968   1.422       .  A
C1968      S1972   1.800       .  S
C1969      C1974   1.409       .  A
C1969      C1978   1.402   1_655  A
S1970      H1986   1.405       .  S
S1972      H1983   1.406       .  S
C1975      H1980   1.083       .  S
C1976      C1977   1.418   1_654  A
C1977      C1978   1.405       .  A
C1977      S1981   1.808       .  S
C1978      H1982   1.083       .  S
S1979      H1984   1.407       .  S
S1981      H1985   1.407       .  S
C1987      C1992   1.402       .  A
C1987      H1997   1.084       .  S
C1988      C1993   1.489       .  S
C1988      C1989   1.414       .  A
C1989      C1990   1.402       .  A
C1989      S1994   1.805       .  S
C1990      C1991   1.407       .  A
C1990      H1995   1.083       .  S
C1992      S1996   1.803       .  S
C1993      C1998   1.411       .  A
S1994      H2010   1.406       .  S
S1996      H2007   1.406       .  S
C1998      C1999   1.409       .  A
C1998      S2003   1.806       .  S
C1999      C2000   1.408       .  A
C1999      H2004   1.082       .  S
C2001      C2002   1.401       .  A
C2001      S2005   1.810       .  S
C2002      H2006   1.083       .  S
S2003      H2008   1.407       .  S
S2005      H2009   1.406       .  S
C2011      C2016   1.408       .  A
C2011      H2021   1.083       .  S
C2012      C2017   1.483       .  S
C2012      C2013   1.411       .  A
C2013      C2014   1.398       .  A
C2013      S2018   1.805   1_655  S
C2014      C2015   1.406       .  A
C2014      H2019   1.084       .  S
C2016      S2020   1.810       .  S
C2017      C2026   1.398       .  A
S2018      H2034   1.405   1_455  S
S2020      H2031   1.407       .  S
C2022      C2023   1.405       .  A
C2022      S2027   1.805       .  S
C2023      H2028   1.082       .  S
C2024      C2025   1.425       .  A
C2025      C2026   1.400       .  A
C2025      S2029   1.801       .  S
C2026      H2030   1.084       .  S
S2027      H2032   1.406       .  S
S2029      H2033   1.402       .  S
C2035      C2036   1.399       .  A
C2035      C2040   1.395       .  A
C2035      H2787   1.084       .  S
C2036      C2041   1.477       .  S
C2036      C2037   1.413       .  A
C2038      H2043   1.084       .  S
C2039      C2040   1.416   1_554  A
C2040      S2786   1.804       .  S
C2041      C2046   1.406       .  A
C2041      C2050   1.398       .  A
S2044      C2782   1.804       .  S
S2044      H2055   1.407       .  S
H2045      C2777   1.084   1_545  S
C2046      C2047   1.403       .  A
C2046      S2051   1.807       .  S
C2047      C2048   1.412       .  A
C2047      H2052   1.082       .  S
C2048      C2049   1.416       .  A
C2049      C2050   1.398       .  A
C2049      S2795   1.792       .  S
C2050      H2796   1.084       .  S
S2051      H2056   1.407       .  S
S2053      C2791   1.798   1_545  S
S2053      H2057   1.407   1_545  S
H2054      C2792   1.084   1_545  S
C2059      C2060   1.398       .  A
C2059      C2064   1.399       .  A
C2059      H2811   1.083       .  S
C2060      C2065   1.481       .  S
C2060      C2061   1.412       .  A
C2061      C2062   1.403       .  A
C2061      S2066   1.804       .  S
C2062      C2063   1.406       .  A
C2062      H2067   1.084       .  S
C2063      C2064   1.423       .  A
C2064      S2810   1.812       .  S
C2065      C2070   1.411       .  A
C2065      C2074   1.402       .  A
S2066      H2082   1.405   1_556  S
S2068      C2806   1.812       .  S
S2068      H2079   1.407       .  S
H2069      C2801   1.083       .  S
C2070      C2071   1.401       .  A
C2070      S2075   1.807       .  S
C2071      H2076   1.083       .  S
C2072      C2073   1.416       .  A
C2073      S2819   1.802       .  S
C2074      H2820   1.084       .  S
S2075      H2080   1.407       .  S
S2077      C2815   1.803   1_545  S
S2077      H2081   1.407       .  S
H2078      C2816   1.084   1_544  S
C2083      C2084   1.403       .  A
C2083      C2088   1.406       .  A
C2083      H2093   1.084       .  S
C2084      C2089   1.484       .  S
C2084      C2085   1.412       .  A
C2085      C2086   1.398       .  A
C2085      S2090   1.806       .  S
C2086      C2087   1.407       .  A
C2086      H2091   1.084       .  S
C2087      C2088   1.420       .  A
C2088      S2092   1.802       .  S
C2089      C2094   1.409       .  A
C2089      C2098   1.398       .  A
S2090      H2106   1.401       .  S
S2092      H2103   1.407       .  S
C2094      C2095   1.407       .  A
C2094      S2099   1.805       .  S
C2095      C2096   1.410       .  A
C2095      H2100   1.082       .  S
C2096      C2097   1.423       .  A
C2097      C2098   1.399       .  A
C2097      S2843   1.803       .  S
C2098      H2844   1.084       .  S
S2099      H2104   1.407       .  S
S2101      C2839   1.803       .  S
S2101      H2105   1.408       .  S
H2102      C2840   1.084       .  S
C2107      C2108   1.404       .  A
C2107      C2112   1.401       .  A
C2107      H2859   1.084       .  S
C2108      C2113   1.487       .  S
C2108      C2109   1.413       .  A
C2109      C2110   1.403       .  A
C2109      S2114   1.806       .  S
C2110      C2111   1.407       .  A
C2110      H2115   1.084       .  S
C2111      C2112   1.415       .  A
C2112      S2858   1.803       .  S
C2113      C2118   1.407       .  A
C2113      C2122   1.405       .  A
S2114      H2130   1.403       .  S
S2116      C2854   1.803       .  S
S2116      H2127   1.407       .  S
H2117      C2849   1.084       .  S
C2118      C2119   1.401       .  A
C2118      S2123   1.808       .  S
C2119      C2120   1.409       .  A
C2119      H2124   1.082       .  S
C2120      C2121   1.417       .  A
C2121      C2122   1.406       .  A
C2121      S2125   1.800       .  S
C2122      H2126   1.084       .  S
S2123      H2128   1.407       .  S
S2125      H2129   1.402       .  S
C2131      C2132   1.403       .  A
C2131      C2136   1.403       .  A
C2131      H2141   1.084       .  S
C2132      C2137   1.477       .  S
C2132      C2133   1.409       .  A
C2133      C2134   1.393       .  A
C2133      S2138   1.805       .  S
C2134      C2135   1.406       .  A
C2134      H2139   1.084       .  S
C2135      C2136   1.418       .  A
C2136      S2140   1.804       .  S
C2137      C2142   1.410       .  A
C2137      C2146   1.400       .  A
S2138      H2154   1.405       .  S
S2140      H2151   1.401       .  S
C2142      C2143   1.401       .  A
C2142      S2147   1.808       .  S
C2143      H2148   1.083       .  S
C2145      C2146   1.399   1_554  A
C2146      H2150   1.084   1_556  S
S2147      H2152   1.407       .  S
S2149      H2153   1.407       .  S
C2155      C2156   1.399   1_554  A
C2155      H2165   1.085       .  S
C2156      C2161   1.474       .  S
C2156      C2157   1.410       .  A
C2157      C2158   1.395       .  A
C2157      S2162   1.805       .  S
C2158      C2159   1.407   1_556  A
C2158      H2163   1.084       .  S
C2160      S2164   1.802       .  S
C2161      C2166   1.406       .  A
C2161      C2170   1.397       .  A
S2162      H2178   1.403       .  S
S2164      H2175   1.408       .  S
C2166      C2167   1.403       .  A
C2166      S2171   1.807       .  S
C2167      C2168   1.411       .  A
C2167      H2172   1.083       .  S
C2168      C2169   1.421       .  A
C2169      C2170   1.395       .  A
C2169      S2173   1.801       .  S
C2170      H2174   1.085       .  S
S2171      H2176   1.407       .  S
S2173      H2177   1.408       .  S
C2179      C2180   1.403       .  A
C2179      C2184   1.402       .  A
C2179      H2189   1.084       .  S
C2180      C2185   1.481       .  S
C2180      C2181   1.410       .  A
C2181      C2182   1.396       .  A
C2181      S2186   1.804       .  S
C2182      C2183   1.405       .  A
C2182      H2187   1.084       .  S
C2183      C2184   1.418       .  A
C2184      S2188   1.803       .  S
C2185      C2190   1.408       .  A
C2185      C2194   1.402       .  A
S2186      H2202   1.406       .  S
S2188      H2199   1.403       .  S
C2190      C2191   1.405       .  A
C2190      S2195   1.806       .  S
C2191      C2192   1.407       .  A
C2191      H2196   1.083       .  S
C2192      C2193   1.415       .  A
C2193      C2194   1.398       .  A
C2193      S2197   1.803       .  S
C2194      H2198   1.084       .  S
S2195      H2200   1.407       .  S
S2197      H2201   1.407       .  S
C2203      C2204   1.399       .  A
C2203      C2208   1.394       .  A
C2203      H2213   1.085       .  S
C2204      C2209   1.476       .  S
C2204      C2205   1.411       .  A
C2205      C2206   1.402       .  A
C2205      S2210   1.806       .  S
C2206      C2207   1.409       .  A
C2206      H2211   1.084       .  S
C2207      C2208   1.417       .  A
C2208      S2212   1.803       .  S
C2209      C2214   1.405       .  A
C2209      C2218   1.397       .  A
S2210      H2226   1.405       .  S
S2212      H2223   1.408       .  S
C2214      C2215   1.401       .  A
C2214      S2219   1.807       .  S
C2215      C2216   1.413       .  A
C2215      H2220   1.082       .  S
C2216      C2217   1.420       .  A
C2217      C2218   1.399       .  A
C2217      S2221   1.800       .  S
C2218      H2222   1.083       .  S
S2219      H2224   1.407       .  S
S2221      H2225   1.408       .  S
C2227      N2228   1.361       .  A
C2227      N2232   1.360       .  A
C2227      C2578   1.485       .  S
N2228      C2229   1.359       .  A
C2229      N2230   1.358       .  A
C2229      C2235   1.468       .  S
N2230      C2231   1.356       .  A
C2231      N2232   1.359       .  A
C2231      C2563   1.484       .  S
C2233      N2234   1.361       .  A
C2233      N2238   1.359       .  A
C2233      C2901   1.486       .  S
N2234      C2235   1.360       .  A
C2235      N2236   1.358       .  A
N2236      C2237   1.355       .  A
C2237      N2238   1.357       .  A
C2237      C2515   1.478       .  S
C2239      N2240   1.363       .  A
C2239      N2244   1.362       .  A
C2239      C2458   1.494       .  S
N2240      C2241   1.361       .  A
C2241      N2242   1.359       .  A
C2241      C2249   1.474       .  S
N2242      C2243   1.357       .  A
C2243      N2244   1.359       .  A
C2243      C2482   1.485       .  S
C2245      N2246   1.358       .  A
C2245      N2250   1.364       .  A
C2245      C2781   1.489       .  S
N2246      C2247   1.356       .  A
C2247      N2248   1.355       .  A
C2247      C2443   1.478       .  S
N2248      C2249   1.359       .  A
C2249      N2250   1.364       .  A
C2251      N2252   1.362       .  A
C2251      N2256   1.363       .  A
C2251      C2386   1.492       .  S
N2252      C2253   1.360       .  A
C2253      N2254   1.358       .  A
C2253      C2259   1.472       .  S
N2254      C2255   1.355       .  A
C2255      N2256   1.359       .  A
C2255      C2362   1.482       .  S
C2257      N2258   1.365       .  A
C2257      N2262   1.362       .  A
C2257      C2718   1.495       .  S
N2258      C2259   1.363       .  A
C2259      N2260   1.356       .  A
N2260      C2261   1.354       .  A
C2261      N2262   1.358       .  A
C2261      C2323   1.482       .  S
O2263     Mn2289   2.096       .  S
C2264      C2587   1.496       .  S
C2264      O2297   1.270       .  A
C2264      O2294   1.277       .  A
O2265     Mn2272   2.174       .  S
O2265     Mn2283   2.123       .  S
O2265     Mn2287   2.175       .  S
O2266     Mn2300   2.093       .  S
O2266      C2276   1.271       .  A
O2267     Mn2283   2.099       .  S
O2267      C2290   1.271       .  A
O2268     Mn2287   2.109       .  S
O2268      C2295   1.256       .  A
O2269     Mn2289   1.958       .  S
O2269      C2285   1.215       .  S
C2270      C2314   1.483       .  S
C2270      O2273   1.256       .  A
C2270      O2296   1.210       .  S
O2271     Mn2272   2.167       .  S
O2271     Mn2305   2.131       .  S
O2271     Mn2287   2.173       .  S
Mn2272     O2277   2.089       .  S
O2274     Mn2281   2.089       .  S
O2274      C2276   1.270       .  A
C2275      C2371   1.493       .  S
C2275      O2301   1.255       .  A
C2275      O2288   1.214       .  S
C2276      C2539   1.483       .  S
O2277      C2302   1.250       .  A
O2278     Mn2281   2.120       .  S
O2278     Mn2300   2.117       .  S
O2279     Mn2283   1.972       .  S
O2279     Mn2305   1.970       .  S
O2279      C2302   1.223       .  S
C2280      C2419   1.490       .  S
C2280      O2282   1.271       .  A
Mn2281     O2294   2.123       .  S
O2282     Mn2305   2.091       .  S
Mn2283     O2299   2.090       .  S
Mn2283     O2293   1.959       .  S
O2284     Mn2289   2.105       .  S
C2285      C2434   1.491       .  S
C2285      O2303   1.254       .  A
C2286      C2395   1.500       .  S
C2286      O2299   1.269       .  A
O2288     Mn2291   1.962       .  S
Mn2289     O2307   1.962       .  S
C2290      C2338   1.499       .  S
Mn2291     O2298   2.090       .  S
Mn2291     O2306   2.117       .  S
Mn2291     O2296   1.954       .  S
C2292      C2467   1.489       .  S
C2292      O2308   1.274       .  A
O2293     Mn2305   1.957       .  S
O2293      C2295   1.222       .  S
C2295      C2506   1.487       .  S
O2297     Mn2300   2.077       .  S
C2302      C2554   1.484       .  S
O2304      C2309   1.253       .  A
Mn2305     O2308   2.102       .  S
O2307      C2309   1.219       .  S
C2309      C2491   1.485       .  S
C2310      C2311   1.396       .  A
C2311      C2316   1.479   1_655  S
C2311      C2312   1.412   1_655  A
C2312      C2313   1.404       .  A
C2312      S2317   1.801       .  S
C2313      C2314   1.406   1_455  A
C2313      H2318   1.084       .  S
C2315      S2319   1.810       .  S
C2316      C2325   1.400   1_455  A
S2317      H2704   1.406       .  S
S2319      H2330   1.406       .  S
C2321      C2693   1.405       .  A
C2321      S2326   1.807       .  S
C2322      C2692   1.402       .  A
C2322      H2327   1.081       .  S
C2323      C2695   1.417       .  A
C2324      C2694   1.419       .  A
C2324      C2325   1.399       .  A
C2324      S2328   1.803       .  S
C2325      H2329   1.084       .  S
S2326      H2702   1.407       .  S
S2328      H2332   1.407       .  S
H2331      S2697   1.407       .  S
H2333      S2688   1.406       .  S
C2334      C2335   1.401       .  A
C2334      C2339   1.401       .  A
C2334      H2344   1.084       .  S
C2335      C2340   1.490       .  S
C2336      C2337   1.402       .  A
C2336      S2341   1.802       .  S
C2337      H2342   1.084       .  S
C2338      C2339   1.422       .  A
C2339      S2343   1.800       .  S
C2340      C2345   1.410       .  A
C2340      C2349   1.402   1_655  A
S2341      H2357   1.406       .  S
S2343      H2354   1.404       .  S
C2345      C2717   1.407       .  A
C2346      C2716   1.408   1_554  A
C2346      C2718   1.409       .  A
C2346      H2351   1.082       .  S
C2347      C2628   1.495       .  S
C2347      C2717   1.408       .  A
C2347      C2348   1.420   1_655  A
C2348      C2349   1.405       .  A
C2348      S2352   1.809       .  S
C2349      H2353   1.082       .  S
S2350      H2355   1.407       .  S
S2352      H2356   1.407       .  S
C2358      C2363   1.403       .  A
C2358      H2368   1.084       .  S
C2359      C2364   1.485       .  S
C2359      C2360   1.412       .  A
C2360      C2361   1.401       .  A
C2360      S2365   1.803       .  S
C2361      C2362   1.404       .  A
C2361      H2366   1.084       .  S
C2363      S2367   1.803       .  S
C2364      C2369   1.408       .  A
S2365      H2381   1.407       .  S
S2367      H2378   1.407       .  S
C2369      C2370   1.408       .  A
C2369      S2374   1.805       .  S
C2370      C2371   1.408       .  A
C2370      H2375   1.083       .  S
C2372      C2373   1.399       .  A
C2372      S2376   1.812       .  S
C2373      H2377   1.083       .  S
S2374      H2379   1.407       .  S
S2376      H2380   1.406       .  S
C2382      C2387   1.406       .  A
C2382      H2392   1.083       .  S
C2383      C2388   1.482       .  S
C2383      C2384   1.410       .  A
C2384      C2385   1.398       .  A
C2384      S2389   1.806   1_655  S
C2385      C2386   1.407       .  A
C2385      H2390   1.084       .  S
C2387      S2391   1.808       .  S
C2388      C2397   1.397       .  A
S2389      H2405   1.405   1_455  S
S2391      H2402   1.407       .  S
C2393      C2394   1.406       .  A
C2393      S2398   1.806       .  S
C2394      H2399   1.082       .  S
C2395      C2396   1.426       .  A
C2396      C2397   1.399       .  A
C2396      S2400   1.802       .  S
C2397      H2401   1.084       .  S
S2398      H2403   1.405       .  S
S2400      H2404   1.402       .  S
C2406      C2407   1.401       .  A
C2406      C2411   1.399       .  A
C2407      C2412   1.486       .  S
C2407      C2408   1.414       .  A
C2408      C2780   1.406       .  A
C2408      S2784   1.806       .  S
C2409      C2779   1.405   1_554  A
C2409      C2781   1.406       .  A
C2409      H2414   1.084       .  S
C2410      C2616   1.492       .  S
C2410      C2780   1.409       .  A
C2410      C2411   1.418       .  A
C2412      C2417   1.409       .  A
C2412      C2421   1.402       .  A
S2413      C2779   1.804   1_554  S
S2413      H2800   1.405   1_554  S
S2415      H2426   1.407       .  S
C2417      C2418   1.404       .  A
C2417      S2422   1.806       .  S
C2418      C2419   1.408       .  A
C2418      H2423   1.082       .  S
C2419      C2420   1.416       .  A
C2420      C2421   1.404       .  A
S2422      H2427   1.407       .  S
S2424      H2428   1.407       .  S
H2429      S2784   1.404       .  S
C2430      C2431   1.398       .  A
C2430      C2435   1.398       .  A
C2431      C2436   1.485       .  S
C2431      C2432   1.413       .  A
C2432      C2433   1.405       .  A
C2432      S2437   1.803       .  S
C2433      C2434   1.408       .  A
C2433      H2438   1.083       .  S
C2434      C2435   1.423       .  A
C2436      C2441   1.413       .  A
C2436      C2445   1.402       .  A
S2437      H2453   1.405       .  S
S2439      H2450   1.408       .  S
C2441      C2442   1.402       .  A
C2441      S2446   1.808       .  S
C2442      C2814   1.402       .  A
C2442      H2447   1.083       .  S
C2443      C2813   1.403   1_554  A
C2443      C2444   1.415       .  A
C2444      C2816   1.402   1_554  A
C2445      C2815   1.402       .  A
S2446      H2451   1.406       .  S
S2448      H2452   1.407       .  S
C2454      C2455   1.402       .  A
C2454      C2459   1.405       .  A
C2454      H2464   1.084   1_565  S
C2455      C2460   1.485       .  S
C2455      C2456   1.411       .  A
C2456      C2457   1.399       .  A
C2456      S2461   1.805       .  S
C2457      C2458   1.408       .  A
C2457      H2462   1.084       .  S
C2458      C2459   1.420       .  A
C2459      S2463   1.802   1_565  S
C2460      C2465   1.410       .  A
C2460      C2469   1.399   1_565  A
S2461      H2477   1.405       .  S
S2463      H2474   1.408       .  S
C2465      C2466   1.408       .  A
C2465      S2470   1.805       .  S
C2466      C2467   1.408       .  A
C2466      H2471   1.083       .  S
C2467      C2468   1.420   1_565  A
C2468      C2469   1.398       .  A
S2470      H2475   1.407       .  S
S2472      H2476   1.408       .  S
C2478      C2479   1.403   1_545  A
C2478      C2483   1.399       .  A
C2479      C2484   1.482       .  S
C2479      C2480   1.413       .  A
C2480      C2481   1.403       .  A
C2480      S2485   1.806       .  S
C2481      C2482   1.407       .  A
C2481      H2486   1.084       .  S
C2482      C2483   1.415   1_565  A
C2484      C2489   1.407       .  A
C2484      C2493   1.404       .  A
S2485      H2501   1.403       .  S
S2487      H2498   1.407       .  S
C2489      C2490   1.398       .  A
C2489      S2494   1.808       .  S
C2490      C2491   1.408       .  A
C2490      H2495   1.082       .  S
C2491      C2492   1.417       .  A
C2492      C2493   1.404       .  A
C2492      S2496   1.802   1_565  S
C2493      H2497   1.083   1_565  S
S2494      H2499   1.407       .  S
S2496      H2500   1.404       .  S
C2502      C2503   1.404       .  A
C2502      C2507   1.404       .  A
C2502      H2512   1.084       .  S
C2503      C2508   1.482       .  S
C2503      C2504   1.410       .  A
C2504      C2505   1.395       .  A
C2504      S2509   1.806       .  S
C2505      C2506   1.408       .  A
C2505      H2510   1.084       .  S
C2506      C2507   1.417       .  A
C2507      S2511   1.801       .  S
C2508      C2513   1.411       .  A
C2508      C2517   1.402       .  A
S2509      H2525   1.405       .  S
S2511      H2522   1.406       .  S
C2513      C2514   1.402       .  A
C2513      S2518   1.807       .  S
C2514      C2886   1.403       .  A
C2514      H2519   1.083       .  S
C2515      C2885   1.404   1_554  A
C2515      C2887   1.416       .  A
C2516      C2886   1.417       .  A
C2516      C2517   1.401       .  A
C2516      S2891   1.804       .  S
C2517      H2521   1.084       .  S
S2518      H2523   1.407       .  S
S2520      C2887   1.804       .  S
S2520      H2524   1.407       .  S
C2526      C2527   1.402       .  A
C2526      C2902   1.404       .  A
C2526      H2536   1.084       .  S
C2527      C2532   1.479       .  S
C2527      C2528   1.410       .  A
C2528      C2529   1.396       .  A
C2528      S2533   1.805       .  S
C2529      C2530   1.405       .  A
C2529      H2534   1.084       .  S
C2530      C2604   1.486       .  S
C2530      C2902   1.419       .  A
C2531      C2897   1.401   1_554  A
C2531      C2901   1.417       .  A
C2531      S2535   1.801       .  S
C2532      C2537   1.408       .  A
C2532      C2541   1.399       .  A
S2533      H2549   1.404       .  S
S2535      H2546   1.408       .  S
C2537      C2538   1.405       .  A
C2537      S2542   1.806       .  S
C2538      C2539   1.409       .  A
C2538      H2543   1.083       .  S
C2539      C2540   1.417       .  A
C2540      C2541   1.396       .  A
C2540      S2544   1.803       .  S
C2541      H2545   1.084       .  S
S2542      H2547   1.407       .  S
S2544      H2548   1.408       .  S
C2550      C2551   1.403       .  A
C2550      C2555   1.403       .  A
C2550      H2560   1.084       .  S
C2551      C2556   1.482       .  S
C2551      C2552   1.411       .  A
C2552      C2553   1.397       .  A
C2552      S2557   1.804       .  S
C2553      C2554   1.405       .  A
C2553      H2558   1.084       .  S
C2554      C2555   1.419       .  A
C2555      S2559   1.803       .  S
C2556      C2561   1.409       .  A
C2556      C2565   1.402       .  A
S2557      H2573   1.406       .  S
S2559      H2570   1.402       .  S
C2561      C2562   1.406       .  A
C2561      S2566   1.806       .  S
C2562      C2563   1.408       .  A
C2562      H2567   1.082       .  S
C2563      C2564   1.414       .  A
C2564      C2565   1.398       .  A
C2564      S2568   1.803       .  S
C2565      H2569   1.084       .  S
S2566      H2571   1.407       .  S
S2568      H2572   1.408       .  S
C2574      C2575   1.400       .  A
C2574      C2579   1.397       .  A
C2574      H2584   1.084       .  S
C2575      C2580   1.478       .  S
C2575      C2576   1.413       .  A
C2576      C2577   1.403       .  A
C2576      S2581   1.808       .  S
C2577      C2578   1.408       .  A
C2577      H2582   1.084       .  S
C2578      C2579   1.417       .  A
C2579      S2583   1.803       .  S
C2580      C2585   1.405       .  A
C2580      C2589   1.399       .  A
S2581      H2597   1.403       .  S
S2583      H2594   1.407       .  S
C2585      C2586   1.402       .  A
C2585      S2590   1.806       .  S
C2586      C2587   1.412       .  A
C2586      H2591   1.082       .  S
C2587      C2588   1.417       .  A
C2588      C2589   1.400       .  A
C2588      S2592   1.791       .  S
C2589      H2593   1.084       .  S
S2590      H2595   1.407       .  S
S2592      H2596   1.404       .  S
C2598      N2599   1.358       .  A
C2598      N2603   1.358       .  A
C2598      C2949   1.479       .  S
N2599      C2600   1.358       .  A
C2600      N2601   1.359       .  A
C2600      C2606   1.466       .  S
N2601      C2602   1.357       .  A
C2602      N2603   1.358       .  A
C2602      C2934   1.481       .  S
C2604      N2605   1.360       .  A
C2604      N2609   1.361       .  A
N2605      C2606   1.360       .  A
C2606      N2607   1.356       .  A
N2607      C2608   1.355       .  A
C2608      N2609   1.358       .  A
C2608      C2886   1.480       .  S
C2610      N2611   1.360       .  A
C2610      N2615   1.363       .  A
C2610      C2829   1.492       .  S
N2611      C2612   1.359       .  A
C2612      N2613   1.358       .  A
C2612      C2620   1.471       .  S
N2613      C2614   1.357       .  A
C2614      N2615   1.360       .  A
C2614      C2853   1.488       .  S
C2616      N2617   1.361       .  A
C2616      N2621   1.363       .  A
N2617      C2618   1.359       .  A
C2618      N2619   1.355       .  A
C2618      C2814   1.482       .  S
N2619      C2620   1.358       .  A
C2620      N2621   1.362       .  A
C2622      N2623   1.361       .  A
C2622      N2627   1.363       .  A
C2622      C2757   1.488       .  S
N2623      C2624   1.358       .  A
C2624      N2625   1.360       .  A
C2624      C2630   1.473       .  S
N2625      C2626   1.358       .  A
C2626      N2627   1.360       .  A
C2626      C2733   1.483       .  S
C2628      N2629   1.364       .  A
C2628      N2633   1.360       .  A
N2629      C2630   1.363       .  A
C2630      N2631   1.356       .  A
N2631      C2632   1.355       .  A
C2632      N2633   1.359       .  A
C2632      C2694   1.485       .  S
O2634     Mn2660   2.101       .  S
C2635      C2958   1.495       .  S
C2635      O2668   1.271       .  A
C2635      O2665   1.278       .  A
O2636     Mn2643   2.176       .  S
O2636     Mn2654   2.121       .  S
O2636     Mn2658   2.176       .  S
O2637     Mn2671   2.088       .  S
O2637      C2647   1.271       .  A
O2638     Mn2654   2.099       .  S
O2638      C2661   1.271       .  A
O2639     Mn2658   2.104       .  S
O2639      C2666   1.255       .  A
O2640     Mn2660   1.954       .  S
O2640      C2656   1.214       .  S
C2641      C2685   1.489       .  S
C2641      O2644   1.257       .  A
C2641      O2667   1.210       .  S
O2642     Mn2643   2.169       .  S
O2642     Mn2676   2.132       .  S
O2642     Mn2658   2.171       .  S
Mn2643     O2648   2.083       .  S
O2645     Mn2652   2.087       .  S
O2645      C2647   1.269       .  A
C2646      C2742   1.491       .  S
C2646      O2672   1.256       .  A
C2646      O2659   1.215       .  S
C2647      C2910   1.485       .  S
O2648      C2673   1.249       .  A
O2649     Mn2652   2.119       .  S
O2649     Mn2671   2.116       .  S
O2650     Mn2654   1.967       .  S
O2650     Mn2676   1.965       .  S
O2650      C2673   1.222       .  S
C2651      C2790   1.486       .  S
C2651      O2653   1.272       .  A
Mn2652     O2665   2.123       .  S
O2653     Mn2676   2.099       .  S
Mn2654     O2670   2.094       .  S
Mn2654     O2664   1.963       .  S
O2655     Mn2660   2.101       .  S
C2656      C2805   1.487       .  S
C2656      O2674   1.253       .  A
C2657      C2766   1.502       .  S
C2657      O2670   1.270       .  A
O2659     Mn2662   1.961       .  S
Mn2660     O2678   1.967       .  S
C2661      C2709   1.499       .  S
Mn2662     O2669   2.089       .  S
Mn2662     O2677   2.120       .  S
Mn2662     O2667   1.956       .  S
C2663      C2838   1.489       .  S
C2663      O2679   1.273       .  A
O2664     Mn2676   1.963       .  S
O2664      C2666   1.221       .  S
C2666      C2877   1.483       .  S
O2668     Mn2671   2.080       .  S
C2673      C2925   1.478       .  S
O2675      C2680   1.253       .  A
Mn2676     O2679   2.100       .  S
O2678      C2680   1.220       .  S
C2680      C2862   1.487       .  S
C2681      C2682   1.396   1_655  A
C2682      C2687   1.481       .  S
C2682      C2683   1.411       .  A
C2683      C2684   1.406       .  A
C2683      S2688   1.802       .  S
C2684      C2685   1.407   1_455  A
C2684      H2689   1.084       .  S
C2686      S2690   1.809       .  S
C2687      C2696   1.401   1_455  A
S2690      H2701   1.406       .  S
C2692      S2697   1.808       .  S
C2693      H2698   1.083       .  S
C2695      C2696   1.400   1_554  A
C2695      S2699   1.803       .  S
C2696      H2700   1.084   1_556  S
S2699      H2703   1.407       .  S
C2705      C2706   1.401       .  A
C2705      C2710   1.402       .  A
C2705      H2715   1.084       .  S
C2706      C2711   1.488       .  S
C2707      C2708   1.402       .  A
C2707      S2712   1.803       .  S
C2708      H2713   1.083       .  S
C2709      C2710   1.422       .  A
C2710      S2714   1.800       .  S
C2711      C2716   1.409       .  A
C2711      C2720   1.401   1_655  A
S2712      H2728   1.405       .  S
S2714      H2725   1.407       .  S
C2717      H2722   1.082       .  S
C2718      C2719   1.419   1_654  A
C2719      C2720   1.404       .  A
C2719      S2723   1.809       .  S
C2720      H2724   1.083       .  S
S2721      H2726   1.407       .  S
S2723      H2727   1.407       .  S
C2729      C2734   1.402       .  A
C2729      H2739   1.084       .  S
C2730      C2735   1.485       .  S
C2730      C2731   1.413       .  A
C2731      C2732   1.404       .  A
C2731      S2736   1.804       .  S
C2732      C2733   1.405       .  A
C2732      H2737   1.084       .  S
C2734      S2738   1.803       .  S
C2735      C2740   1.409       .  A
S2736      H2752   1.404       .  S
S2738      H2749   1.407       .  S
C2740      C2741   1.409       .  A
C2740      S2745   1.804       .  S
C2741      C2742   1.408       .  A
C2741      H2746   1.083       .  S
C2743      C2744   1.399       .  A
C2743      S2747   1.813       .  S
C2744      H2748   1.082       .  S
S2745      H2750   1.407       .  S
S2747      H2751   1.406       .  S
C2753      C2758   1.408       .  A
C2753      H2763   1.083       .  S
C2754      C2759   1.486       .  S
C2754      C2755   1.412       .  A
C2755      C2756   1.401       .  A
C2755      S2760   1.804   1_655  S
C2756      C2757   1.406       .  A
C2756      H2761   1.084   1_655  S
C2758      S2762   1.810       .  S
C2759      C2768   1.398       .  A
S2760      H2776   1.406   1_455  S
S2762      H2773   1.406       .  S
C2764      C2765   1.406       .  A
C2764      S2769   1.805       .  S
C2765      H2770   1.082       .  S
C2766      C2767   1.425       .  A
C2767      C2768   1.399       .  A
C2767      S2771   1.801       .  S
C2768      H2772   1.084       .  S
S2769      H2774   1.405       .  S
S2771      H2775   1.403       .  S
C2777      C2778   1.402       .  A
C2777      C2782   1.400   1_565  A
C2778      C2783   1.487       .  S
C2778      C2779   1.413       .  A
C2780      H2785   1.084       .  S
C2781      C2782   1.419   1_564  A
C2783      C2788   1.410       .  A
C2783      C2792   1.402       .  A
S2786      H2797   1.407       .  S
C2788      C2789   1.405       .  A
C2788      S2793   1.806       .  S
C2789      C2790   1.406       .  A
C2789      H2794   1.083       .  S
C2790      C2791   1.414       .  A
C2791      C2792   1.403       .  A
S2793      H2798   1.407       .  S
S2795      H2799   1.407       .  S
C2801      C2802   1.398       .  A
C2801      C2806   1.397       .  A
C2802      C2807   1.482       .  S
C2802      C2803   1.412       .  A
C2803      C2804   1.402       .  A
C2803      S2808   1.802   1_556  S
C2804      C2805   1.407       .  A
C2804      H2809   1.084       .  S
C2805      C2806   1.422       .  A
C2807      C2812   1.411       .  A
C2807      C2816   1.403       .  A
S2808      H2824   1.406       .  S
S2810      H2821   1.407       .  S
C2812      C2813   1.400       .  A
C2812      S2817   1.808       .  S
C2813      H2818   1.083       .  S
C2814      C2815   1.417       .  A
S2817      H2822   1.406       .  S
S2819      H2823   1.407       .  S
C2825      C2826   1.401       .  A
C2825      C2830   1.404       .  A
C2825      H2835   1.084   1_565  S
C2826      C2831   1.481       .  S
C2826      C2827   1.411       .  A
C2827      C2828   1.398       .  A
C2827      S2832   1.806       .  S
C2828      C2829   1.407       .  A
C2828      H2833   1.084       .  S
C2829      C2830   1.421       .  A
C2830      S2834   1.802   1_565  S
C2831      C2836   1.408       .  A
C2831      C2840   1.398   1_565  A
S2832      H2848   1.404       .  S
S2834      H2845   1.408       .  S
C2836      C2837   1.406       .  A
C2836      S2841   1.805       .  S
C2837      C2838   1.409       .  A
C2837      H2842   1.083       .  S
C2838      C2839   1.421   1_565  A
C2839      C2840   1.397       .  A
S2841      H2846   1.407       .  S
S2843      H2847   1.408       .  S
C2849      C2850   1.404   1_545  A
C2849      C2854   1.401       .  A
C2850      C2855   1.484       .  S
C2850      C2851   1.413       .  A
C2851      C2852   1.402       .  A
C2851      S2856   1.807       .  S
C2852      C2853   1.407       .  A
C2852      H2857   1.084       .  S
C2853      C2854   1.415   1_565  A
C2855      C2860   1.407       .  A
C2855      C2864   1.404       .  A
S2856      H2872   1.401       .  S
S2858      H2869   1.407       .  S
C2860      C2861   1.400       .  A
C2860      S2865   1.806       .  S
C2861      C2862   1.408       .  A
C2861      H2866   1.083       .  S
C2862      C2863   1.418       .  A
C2863      C2864   1.405       .  A
C2863      S2867   1.802   1_565  S
C2864      H2868   1.084   1_565  S
S2865      H2870   1.407       .  S
S2867      H2871   1.401       .  S
C2873      C2874   1.403       .  A
C2873      C2878   1.403       .  A
C2873      H2883   1.084       .  S
C2874      C2879   1.480       .  S
C2874      C2875   1.410       .  A
C2875      C2876   1.394       .  A
C2875      S2880   1.805       .  S
C2876      C2877   1.407       .  A
C2876      H2881   1.084       .  S
C2877      C2878   1.417       .  A
C2878      S2882   1.802       .  S
C2879      C2884   1.409       .  A
C2879      C2888   1.402       .  A
S2880      H2896   1.405       .  S
S2882      H2893   1.404       .  S
C2884      C2885   1.400       .  A
C2884      S2889   1.807       .  S
C2885      H2890   1.083       .  S
C2887      C2888   1.401   1_554  A
C2888      H2892   1.084   1_556  S
S2889      H2894   1.407       .  S
S2891      H2895   1.407       .  S
C2897      C2898   1.400       .  A
C2897      H2907   1.084   1_556  S
C2898      C2903   1.475       .  S
C2898      C2899   1.412       .  A
C2899      C2900   1.397       .  A
C2899      S2904   1.808       .  S
C2900      C2901   1.407   1_556  A
C2900      H2905   1.084       .  S
C2902      S2906   1.802       .  S
C2903      C2908   1.407       .  A
C2903      C2912   1.398       .  A
S2904      H2920   1.402       .  S
S2906      H2917   1.407       .  S
C2908      C2909   1.402       .  A
C2908      S2913   1.806       .  S
C2909      C2910   1.410       .  A
C2909      H2914   1.083       .  S
C2910      C2911   1.420       .  A
C2911      C2912   1.396       .  A
C2911      S2915   1.802       .  S
C2912      H2916   1.084       .  S
S2913      H2918   1.408       .  S
S2915      H2919   1.408       .  S
C2921      C2922   1.402       .  A
C2921      C2926   1.402       .  A
C2921      H2931   1.084       .  S
C2922      C2927   1.479       .  S
C2922      C2923   1.410       .  A
C2923      C2924   1.394       .  A
C2923      S2928   1.804       .  S
C2924      C2925   1.404       .  A
C2924      H2929   1.084       .  S
C2925      C2926   1.418       .  A
C2926      S2930   1.803       .  S
C2927      C2932   1.408       .  A
C2927      C2936   1.401       .  A
S2928      H2944   1.406       .  S
S2930      H2941   1.404       .  S
C2932      C2933   1.405       .  A
C2932      S2937   1.806       .  S
C2933      C2934   1.408       .  A
C2933      H2938   1.083       .  S
C2934      C2935   1.414       .  A
C2935      C2936   1.396       .  A
C2935      S2939   1.803       .  S
C2936      H2940   1.084       .  S
S2937      H2942   1.407       .  S
S2939      H2943   1.407       .  S
C2945      C2946   1.400       .  A
C2945      C2950   1.396       .  A
C2945      H2955   1.084       .  S
C2946      C2951   1.477       .  S
C2946      C2947   1.413       .  A
C2947      C2948   1.402       .  A
C2947      S2952   1.806       .  S
C2948      C2949   1.406       .  A
C2948      H2953   1.084       .  S
C2949      C2950   1.415       .  A
C2950      S2954   1.803       .  S
C2951      C2956   1.405       .  A
C2951      C2960   1.398       .  A
S2952      H2968   1.404       .  S
S2954      H2965   1.407       .  S
C2956      C2957   1.403       .  A
C2956      S2961   1.806       .  S
C2957      C2958   1.412       .  A
C2957      H2962   1.082       .  S
C2958      C2959   1.417       .  A
C2959      C2960   1.399       .  A
C2959      S2963   1.789       .  S
C2960      H2964   1.084       .  S
S2961      H2966   1.407       .  S
S2963      H2967   1.405       .  S
