geometry optimzed in LAMMPS
_audit_creation_date              2020-11-30 
_audit_creation_method            'lammps2cif' 
_symmetry_space_group_name_H-M    'P1' 
_symmetry_Int_Tables_number       1 
_symmetry_cell_setting            triclinic 
loop_ 
_symmetry_equiv_pos_as_xyz 
  x,y,z 
_cell_length_a                    34.29061315 
_cell_length_b                    35.30765197032462 
_cell_length_c                    38.87572359350935 
_cell_angle_alpha                 89.44278733547833 
_cell_angle_beta                  89.52551158263913 
_cell_angle_gamma                 89.9633070830279 
loop_ 
_atom_site_label 
_atom_site_type_symbol 
_atom_site_fract_x 
_atom_site_fract_y 
_atom_site_fract_z 
_atom_site_charge 
C1          C  0.48571331  0.51732022  0.98863726    -0.02600
In2        In  0.25948591  0.34841314  0.19678631     1.36900
C3          C  0.20885747  0.38201630  0.23995123     0.77400
O4          O  0.21250043  0.34173089  0.15650891    -0.61000
O5          O  0.25711620  0.30042139  0.15828877    -0.51900
C6          C  0.30716096  0.39429465  0.16076464     0.70100
O7          O  0.27307199  0.40353221  0.16961257    -0.46800
C8          C  0.29631828  0.30839920  0.24554798     0.74800
O9          O  0.23946019  0.39771034  0.22871123    -0.58600
O10         O  0.27102618  0.29396723  0.22633354    -0.48700
O11         O  0.20367577  0.34923694  0.22819984    -0.55100
C12         C  0.22648098  0.31186322  0.14381381     0.85000
O13         O  0.31695273  0.36147210  0.17050424    -0.57000
O14         O  0.30338238  0.34277889  0.23930880    -0.60300
In15       In  0.84230981  0.74549055  0.06195296     1.36900
C16         C  0.88644313  0.69666120  0.02686886     0.77400
O17         O  0.81442430  0.69282250  0.08432263    -0.61000
O18         O  0.80066167  0.74516606  0.10768388    -0.51900
C19         C  0.89088273  0.79009051  0.09657899     0.70100
O20         O  0.86996157  0.80203829  0.07230753    -0.46800
C21         C  0.80360131  0.78662768  0.01484490     0.74800
O22         O  0.85252865  0.70581528  0.01773939    -0.58600
O23         O  0.78626513  0.76680677  0.03748620    -0.48700
O24         O  0.89765539  0.71245507  0.05386526    -0.55100
C25         C  0.79709264  0.70959906  0.10847541     0.85000
O26         O  0.88566153  0.75574291  0.10416610    -0.57000
O27         O  0.84025378  0.78543984  0.01647779    -0.60300
In28       In  0.75421295  0.85498287  0.44392246     1.36900
C29         C  0.71008131  0.89666952  0.48634262     0.77400
O30         O  0.70407512  0.84651873  0.40714788    -0.61000
O31         O  0.75229691  0.80954486  0.40275616    -0.51900
C32         C  0.80152193  0.89942524  0.40665008     0.70100
O33         O  0.76526396  0.90490301  0.40873678    -0.46800
C34         C  0.78820312  0.81120279  0.49215558     0.74800
O35         O  0.74088565  0.90886552  0.47236288    -0.58600
O36         O  0.75693473  0.80194055  0.47757728    -0.48700
O37         O  0.70194539  0.86297653  0.47875509    -0.55100
C38         C  0.71950221  0.81939846  0.39121988     0.85000
O39         O  0.81356482  0.87100485  0.42343950    -0.57000
O40         O  0.80263104  0.84191624  0.48127585    -0.60300
In41       In  0.74262432  0.65036255  0.18851403     1.36900
C42         C  0.79120994  0.60390308  0.22210830     0.77400
O43         O  0.77692310  0.65335612  0.13870955    -0.61000
O44         O  0.75800989  0.70507149  0.16018455    -0.51900
C45         C  0.68884655  0.61020440  0.15509371     0.70100
O46         O  0.71870235  0.59567697  0.16831563    -0.46800
C47         C  0.71357616  0.69406855  0.23871975     0.74000
O48         O  0.75506682  0.60486541  0.22783854    -0.58600
O49         O  0.74740068  0.69875162  0.22641943    -0.48700
O50         O  0.80283345  0.62823491  0.20042729    -0.55100
C51         C  0.77634113  0.68892855  0.13621742     0.85000
O52         O  0.68640894  0.64554883  0.15932610    -0.57000
O53         O  0.69490242  0.66721944  0.22551197    -0.60300
In54       In  0.17024689  0.25254937  0.06620586     1.36900
C55         C  0.13015687  0.20575754  0.10824445     0.77400
O56         O  0.16975453  0.20849838  0.02501148    -0.61000
O57         O  0.22222636  0.23914476  0.03086977    -0.51900
C58         C  0.12777127  0.29696306  0.02512518     0.70100
O59         O  0.11397006  0.26905521  0.04159885    -0.46800
C60         C  0.20794021  0.29162483  0.11506379     0.74800
O61         O  0.11737730  0.23743119  0.09821922    -0.58600
O62         O  0.22078744  0.26091831  0.10305159    -0.48700
O63         O  0.16364957  0.19807517  0.09658016    -0.55100
C64         C  0.20386536  0.21445043  0.01415489     0.85000
O65         O  0.16356059  0.30283076  0.03040807    -0.57000
O66         O  0.17717106  0.30320629  0.10096148    -0.60300
C67         C  0.00627248  0.99402682  0.23980904    -0.02600
C68         C  0.99131961  0.49135682  0.37840834    -0.02600
In69       In  0.66194654  0.76238320  0.31286187     1.36900
C70         C  0.61917550  0.72012552  0.35551066     0.77400
O71         O  0.66525415  0.70949426  0.28104989    -0.61000
O72         O  0.71131209  0.74894881  0.27532368    -0.51900
C73         C  0.61854510  0.80356576  0.26910405     0.70100
O74         O  0.60543019  0.77739233  0.28808257    -0.46800
C75         C  0.70032664  0.80051830  0.36203746     0.74800
O76         O  0.60551269  0.74782594  0.33891822    -0.58600
O77         O  0.71432034  0.77188260  0.34732485    -0.48700
O78         O  0.65494826  0.71383638  0.35014395    -0.55100
C79         C  0.69659106  0.71804789  0.26584436     0.85000
O80         O  0.65449038  0.80986744  0.27333494    -0.57000
O81         O  0.66800670  0.81116292  0.35015391    -0.60300
In82       In  0.35605788  0.24863197  0.32078478     1.36900
C83         C  0.39811699  0.19878456  0.28493009     0.77400
O84         O  0.34812077  0.21131157  0.36754999    -0.61000
O85         O  0.29720585  0.23275724  0.34362457    -0.51900
C86         C  0.40127572  0.29465051  0.35708043     0.70100
O87         O  0.41468777  0.27250565  0.33470789    -0.46800
C88         C  0.31630443  0.28710177  0.27291198     0.74800
O89         O  0.39671080  0.23345739  0.27724828    -0.58600
O90         O  0.31222516  0.25192736  0.27758408    -0.48700
O91         O  0.37780214  0.18966531  0.31080882    -0.55100
C92         C  0.31141510  0.21268824  0.36748379     0.85000
O93         O  0.36482129  0.29287131  0.36115663    -0.57000
O94         O  0.33939560  0.30268407  0.29344593    -0.60300
C95         C  0.47507209  0.98920721  0.12493454    -0.02600
In96       In  0.24446688  0.14764288  0.43465310     1.36900
C97         C  0.20453555  0.10929862  0.38710195     0.77400
O98         O  0.19510056  0.16416375  0.47014809    -0.61000
O99         O  0.24700540  0.19646152  0.47245256    -0.51900
C100        C  0.27786799  0.09492948  0.47436479     0.70100
O101        O  0.29532542  0.11104613  0.44957596    -0.46800
C102        C  0.28741807  0.19142341  0.39258398     0.74800
O103        O  0.23653586  0.09821354  0.39921868    -0.58600
O104        O  0.25065169  0.19195716  0.39253517    -0.48700
O105        O  0.19194019  0.13934029  0.40053935    -0.55100
C106        C  0.21328073  0.19059290  0.48456906     0.85000
O107        O  0.24297571  0.10523373  0.47849005    -0.57000
O108        O  0.30211635  0.17016092  0.41528878    -0.60300
C109        C  0.39873668  0.03951240  0.06687255    -0.11500
C110        C  0.37165294  0.01109127  0.06071342     0.15000
C111        C  0.37780002  0.97463798  0.07474986     0.01900
C112        C  0.41091659  0.96771947  0.09508634    -0.15900
C113        C  0.43939765  0.99602359  0.10085746    -0.10700
C114        C  0.43227703  0.03281407  0.08599712     0.08600
C115        C  0.33891807  0.02172329  0.03791738     0.09700
S116        S  0.34470862  0.93582747  0.06782450    -0.25000
H117        H  0.41347046  0.94021975  0.10721788     0.19900
S118        S  0.46732842  0.07117198  0.08664503    -0.30700
H119        H  0.39426014  0.06713418  0.05513706     0.10200
C120        C  0.30894519  0.04552578  0.05013011     0.03400
C121        C  0.28657647  0.06646185  0.02661521    -0.13000
C122        C  0.29758885  0.06809286  0.49792149    -0.08700
C123        C  0.32488902  0.04131574  0.48583390     0.06900
C124        C  0.34360889  0.01672511  0.00236614    -0.13800
S125        S  0.30175953  0.05182603  0.09580936    -0.30700
H126        H  0.26518674  0.08649571  0.03604219     0.11100
S127        S  0.33015251  0.03224371  0.44038836    -0.27800
H128        H  0.36675702  0.99847052  0.99315351     0.08400
H129        H  0.44043158  0.10085739  0.08190531     0.26800
H130        H  0.27033168  0.07732632  0.09343738     0.21600
H131        H  0.35711241  0.00237629  0.44346617     0.26900
H132        H  0.31205009  0.95757929  0.05862636     0.15700
C133        C  0.43140532  0.05630143  0.19465103    -0.11500
C134        C  0.46113492  0.08252800  0.19915667     0.15000
C135        C  0.49641718  0.07847884  0.18093007     0.01900
C136        C  0.50069912  0.04883281  0.15753782    -0.15900
C137        C  0.47071936  0.02186559  0.15207683    -0.10700
C138        C  0.43537450  0.02623560  0.17186069     0.08600
C139        C  0.45227140  0.11508403  0.22136004     0.09700
S140        S  0.53660742  0.11095235  0.18544551    -0.25000
H141        H  0.52732898  0.04852397  0.14265891     0.19900
S142        S  0.39540296  0.99260354  0.17071702    -0.30700
H143        H  0.40448889  0.05991946  0.20901927     0.10200
C144        C  0.43969676  0.14973702  0.20709129     0.03400
C145        C  0.42426238  0.17757873  0.22878186    -0.13000
C146        C  0.42035803  0.17104277  0.26436594    -0.08700
C147        C  0.43493921  0.13692964  0.27869448     0.06900
C148        C  0.45029653  0.10921422  0.25701226    -0.13800
S149        S  0.44040854  0.15718357  0.16102161    -0.30700
H150        H  0.41322087  0.20369404  0.21774925     0.11100
S151        S  0.43474429  0.12692714  0.32425086    -0.27800
H152        H  0.45985609  0.08241638  0.26787519     0.08400
H153        H  0.37165843  0.00856936  0.19643009     0.26800
H154        H  0.42232679  0.19294579  0.16105199     0.21600
H155        H  0.44339224  0.16432193  0.33379613     0.26900
H156        H  0.52729282  0.12274288  0.21894199     0.15700
C157        C  0.58010267  0.86924334  0.19769272    -0.11500
C158        C  0.53983441  0.86251585  0.20030795     0.15000
C159        C  0.52606008  0.83538795  0.22428720     0.01900
C160        C  0.55250465  0.81673355  0.24583884    -0.15900
C161        C  0.59286862  0.82426452  0.24433917    -0.10700
C162        C  0.60680218  0.85062362  0.21939816     0.08600
C163        C  0.51316540  0.88917282  0.18236090     0.09700
S164        S  0.47491103  0.82479757  0.23002371    -0.25000
H165        H  0.54109872  0.79651363  0.26448717     0.19900
S166        S  0.65810900  0.86146619  0.21497472    -0.30700
H167        H  0.59037150  0.89039961  0.17943418     0.10200
C168        C  0.49764268  0.92005311  0.20001279     0.03400
C169        C  0.47978106  0.94931153  0.18165289    -0.13000
C170        C  0.47673041  0.94970667  0.14501999    -0.08700
C171        C  0.48721570  0.91498954  0.12836575     0.06900
C172        C  0.50623219  0.88594935  0.14708404    -0.13800
S173        S  0.50494666  0.92492715  0.24584239    -0.30700
H174        H  0.47263333  0.97343514  0.19692684     0.11100
S175        S  0.48103096  0.90802393  0.08275421    -0.27800
H176        H  0.51745810  0.86130203  0.13394079     0.08400
H177        H  0.65449565  0.89039962  0.19007360     0.26800
H178        H  0.47760793  0.95407478  0.25113026     0.21600
H179        H  0.49054149  0.86928083  0.08212114     0.26900
H180        H  0.46288767  0.83679859  0.19721976     0.15700
C181        C  0.13464009  0.08237659  0.31526021    -0.11500
C182        C  0.14178771  0.04336427  0.31280880     0.15000
C183        C  0.17175644  0.02698910  0.33259195     0.01900
C184        C  0.19222654  0.04937893  0.35589101    -0.15900
C185        C  0.18381483  0.08813495  0.35982386    -0.10700
C186        C  0.15560031  0.10498830  0.33806266     0.08600
C187        C  0.11303258  0.02003983  0.29424892     0.09700
S188        S  0.18349749  0.97726050  0.33075592    -0.25000
H189        H  0.21417983  0.03603893  0.37183076     0.19900
S190        S  0.14499193  0.15497243  0.33781802    -0.30700
H191        H  0.11167674  0.09509694  0.29999381     0.10200
C192        C  0.08176606  0.00359839  0.31224734     0.03400
C193        C  0.05012418  0.98938101  0.29405650    -0.13000
C194        C  0.04764626  0.99199883  0.25755218    -0.08700
C195        C  0.08286609  0.00280813  0.23977082     0.06900
C196        C  0.11434021  0.01777590  0.25837861    -0.13800
S197        S  0.07951705  0.00555046  0.35876185    -0.30700
H198        H  0.02563760  0.98101581  0.30963135     0.11100
S199        S  0.08774252  0.00132319  0.19339384    -0.27800
H200        H  0.13943836  0.02943736  0.24495315     0.08400
H201        H  0.18434822  0.16598788  0.33973335     0.26800
H202        H  0.04360068  0.98690041  0.36338674     0.21600
H203        H  0.12634258  0.01453768  0.19082717     0.26900
H204        H  0.17063690  0.97169771  0.29694305     0.15700
C205        C  0.01919798  0.38706904  0.39585345    -0.11500
C206        C  0.02145074  0.38760440  0.43168847     0.15000
C207        C  0.00238480  0.41626708  0.44986375     0.01900
C208        C  0.98593027  0.44660015  0.43179384    -0.15900
C209        C  0.98939498  0.45044283  0.39535551    -0.10700
C210        C  0.00233690  0.41732766  0.37737061     0.08600
C211        C  0.04714360  0.36054940  0.44989003     0.09700
S212        S  0.00417278  0.41736474  0.49639024    -0.25000
H213        H  0.97556401  0.46931262  0.44751830     0.19900
S214        S  0.00180173  0.41394060  0.33094437    -0.30700
H215        H  0.03260599  0.36369808  0.38236216     0.10200
C216        C  0.03184796  0.32999858  0.46904549     0.03400
C217        C  0.06995878  0.30312208  0.98737676    -0.13000
C218        C  0.10345275  0.31999264  0.00133670    -0.08700
C219        C  0.11222945  0.34665351  0.47165820     0.06900
C220        C  0.08722974  0.36826889  0.45098142    -0.13800
S221        S  0.98047391  0.31904536  0.46735743    -0.30700
H222        H  0.06357189  0.27376846  0.99340512     0.11100
S223        S  0.16341999  0.35800173  0.46970863    -0.27800
H224        H  0.09898505  0.39174226  0.43600527     0.08400
H225        H  0.01974940  0.37828203  0.32805311     0.26800
H226        H  0.00831485  0.26508664  0.96328792     0.21600
H227        H  0.14906186  0.41666929  0.99254239     0.26900
H228        H  0.00445554  0.38084159  0.00955025     0.15700
C229        C  0.03123997  0.10030638  0.22371533    -0.11500
C230        C  0.03473701  0.10106717  0.18791362     0.15000
C231        C  0.01946404  0.07112347  0.16894791     0.01900
C232        C  0.00527719  0.03889447  0.18615727    -0.15900
C233        C  0.00606690  0.03494613  0.22266180    -0.10700
C234        C  0.01616351  0.06843854  0.24136126     0.08600
C235        C  0.05907575  0.13051477  0.17075018     0.09700
S236        S  0.02233776  0.07204214  0.12245105    -0.25000
H237        H  0.99804451  0.01544233  0.17003559     0.19900
S238        S  0.01439585  0.07094015  0.28781691    -0.30700
H239        H  0.04250951  0.12404334  0.23798756     0.10200
C240        C  0.04265181  0.16240165  0.15450603     0.03400
C241        C  0.06669038  0.18683460  0.13501740    -0.13000
C242        C  0.10696981  0.17987178  0.13105193    -0.08700
C243        C  0.12350360  0.14829091  0.14841989     0.06900
C244        C  0.09931259  0.12409743  0.16798545    -0.13800
S245        S  0.99091702  0.17127518  0.15793244    -0.30700
H246        H  0.05378877  0.21101616  0.12211126     0.11100
S247        S  0.17515287  0.13812045  0.14619423    -0.27800
H248        H  0.11150892  0.09929508  0.18050583     0.08400
H249        H  0.01744135  0.11054636  0.29031851     0.26800
H250        H  0.99021926  0.20352004  0.13641202     0.21600
H251        H  0.17531994  0.10799797  0.17014673     0.26900
H252        H  0.00306589  0.03754893  0.11673998     0.15700
C253        C  0.92824637  0.54489362  0.31070130    -0.11500
C254        C  0.90071046  0.51797633  0.30160054     0.15000
C255        C  0.90313242  0.48114002  0.31569988     0.01900
C256        C  0.93216249  0.47270412  0.33993042    -0.15900
C257        C  0.96028000  0.49983681  0.34981987    -0.10700
C258        C  0.95784883  0.53672478  0.33394860     0.08600
C259        C  0.86902171  0.53149178  0.27891403     0.09700
S260        S  0.86976059  0.44394408  0.30434122    -0.25000
H261        H  0.93154150  0.44498834  0.35190260     0.19900
S262        S  0.99305833  0.57413510  0.34115563    -0.30700
H263        H  0.92600946  0.57304615  0.29958126     0.10200
C264        C  0.83218394  0.54117270  0.29253890     0.03400
C265        C  0.80663125  0.56336698  0.27275856    -0.13000
C266        C  0.81741599  0.57671208  0.23983014    -0.08700
C267        C  0.85333614  0.56470843  0.22542212     0.06900
C268        C  0.87879114  0.54267669  0.24520822    -0.13800
S269        S  0.81915093  0.52827625  0.33623294    -0.30700
H270        H  0.77896332  0.57205140  0.28373667     0.11100
S271        S  0.86860601  0.57653436  0.18216054    -0.27800
H272        H  0.90720193  0.53540149  0.23476006     0.08400
H273        H  0.97878194  0.60110359  0.31757651     0.26800
H274        H  0.78144415  0.54397261  0.33603689     0.21600
H275        H  0.83137323  0.57164547  0.16790196     0.26900
H276        H  0.85958822  0.45893745  0.27201488     0.15700
C277        C  0.89083726  0.95184886  0.37317086    -0.11500
C278        C  0.87959415  0.96039882  0.33933471     0.15000
C279        C  0.84117214  0.95205086  0.32897608     0.01900
C280        C  0.81534215  0.93463795  0.35238249    -0.15900
C281        C  0.82755312  0.92369625  0.38543212    -0.10700
C282        C  0.86535036  0.93370580  0.39625478     0.08600
C283        C  0.91065059  0.97099451  0.31434579     0.09700
S284        S  0.82413535  0.96036406  0.28575186    -0.25000
H285        H  0.78633860  0.92717906  0.34389710     0.19900
S286        S  0.88295753  0.92382949  0.43899081    -0.30700
H287        H  0.92034192  0.95801426  0.38120719     0.10200
C288        C  0.91443101  0.00721121  0.29940026     0.03400
C289        C  0.94467642  0.01427829  0.27546044    -0.13000
C290        C  0.97294761  0.98642004  0.26713802    -0.08700
C291        C  0.96836574  0.94978966  0.28325070     0.06900
C292        C  0.93748176  0.94295949  0.30598871    -0.13800
S293        S  0.88104613  0.04453049  0.31105271    -0.30700
H294        H  0.94529024  0.04150601  0.26267484     0.11100
S295        S  0.00298574  0.91134316  0.27837600    -0.27800
H296        H  0.93450758  0.91539296  0.31821312     0.08400
H297        H  0.84659601  0.92837708  0.45547296     0.26800
H298        H  0.90173365  0.07419911  0.29480737     0.21600
H299        H  0.97856504  0.88169567  0.28977545     0.26900
H300        H  0.85968106  0.95283326  0.26890881     0.15700
C301        C  0.55815112  0.98218038  0.05383210    -0.11500
C302        C  0.58939289  0.97194098  0.07455712     0.15000
C303        C  0.58523115  0.97385319  0.11038194     0.01900
C304        C  0.54911934  0.98372145  0.12461766    -0.15900
C305        C  0.51521634  0.99012439  0.10443622    -0.10700
C306        C  0.52090560  0.98960629  0.06745439     0.08600
C307        C  0.62237353  0.95239190  0.05747965     0.09700
S308        S  0.62380191  0.96080841  0.13947154    -0.25000
H309        H  0.54670140  0.98337378  0.15241393     0.19900
S310        S  0.48273637  0.99169028  0.03530429    -0.30700
H311        H  0.56241137  0.98033600  0.02627785     0.10200
C312        C  0.62201898  0.91267443  0.05435823     0.03400
C313        C  0.66455010  0.90112186  0.53616438    -0.13000
C314        C  0.68534079  0.91967710  0.50964408    -0.08700
C315        C  0.67732740  0.95612627  0.01729327     0.06900
C316        C  0.65042140  0.97366909  0.03937426    -0.13800
S317        S  0.61063524  0.89548199  0.58990332    -0.30700
H318        H  0.66781354  0.87079939  0.53947348     0.11100
S319        S  0.71014775  0.98646712  0.99337283    -0.27800
H320        H  0.65013014  0.00427371  0.04123979     0.08400
H321        H  0.50513329  0.98748892  0.00513713     0.26800
H322        H  0.63257008  0.86181995  0.58881474     0.21600
H323        H  0.70295322  0.96909511  0.96162445     0.26900
H324        H  0.65484602  0.96555907  0.11602331     0.15700
C325        C  0.93367313  0.55477743  0.44285037    -0.11500
C326        C  0.96086727  0.58218352  0.45153896     0.15000
C327        C  0.99924502  0.57950460  0.43847862     0.01900
C328        C  0.00903910  0.54992618  0.41600319    -0.15900
C329        C  0.98156631  0.52221574  0.40613431    -0.10700
C330        C  0.94297810  0.52529074  0.42065544     0.08600
C331        C  0.94619624  0.61400312  0.47249901     0.09700
S332        S  0.03681437  0.61350886  0.44806907    -0.25000
H333        H  0.03797450  0.55011011  0.40484783     0.19900
S334        S  0.90457979  0.49110413  0.41357637    -0.30700
H335        H  0.90445686  0.55672355  0.45356134     0.10200
C336        C  0.92634876  0.64445794  0.45681738     0.03400
C337        C  0.90596920  0.67039790  0.47732725    -0.13000
C338        C  0.91094170  0.66994053  0.00723635    -0.08700
C339        C  0.93655389  0.64394383  0.02336601     0.06900
C340        C  0.94559390  0.61022868  0.50843631    -0.13800
S341        S  0.92594054  0.64942326  0.41051722    -0.30700
H342        H  0.89071437  0.69383216  0.46530684     0.11100
S343        S  0.94105836  0.63978218  0.06940798    -0.27800
H344        H  0.97546912  0.59690314  0.01584042     0.08400
H345        H  0.87318737  0.51628569  0.41829200     0.26800
H346        H  0.90085703  0.68092831  0.40908987     0.21600
H347        H  0.90079504  0.64303854  0.07604952     0.26900
H348        H  0.01755146  0.63277930  0.47463214     0.15700
C349        C  0.96273133  0.86834407  0.11703634    -0.11500
C350        C  0.96444093  0.86532912  0.15297040     0.15000
C351        C  0.94492749  0.83507090  0.16984053     0.01900
C352        C  0.92268481  0.80978118  0.15058534    -0.15900
C353        C  0.91892882  0.81430405  0.11485815    -0.10700
C354        C  0.94055965  0.84304331  0.09781332     0.08600
C355        C  0.97826381  0.89868149  0.17210355     0.09700
S356        S  0.94397552  0.82930008  0.21602300    -0.25000
H357        H  0.90650375  0.78761178  0.16386219     0.19900
S358        S  0.94077408  0.84923554  0.05172563    -0.30700
H359        H  0.97737486  0.89167470  0.10401883     0.10200
C360        C  0.01623206  0.90214296  0.18496432     0.03400
C361        C  0.02590279  0.93381496  0.20494125    -0.13000
C362        C  0.99836602  0.96272344  0.21224369    -0.08700
C363        C  0.96082806  0.95970654  0.19630167     0.06900
C364        C  0.95158173  0.92780963  0.17710189    -0.13800
S365        S  0.05149068  0.86505498  0.17766664    -0.30700
H366        H  0.05413544  0.93417027  0.21692432     0.11100
S367        S  0.92346629  0.99594774  0.19965097    -0.27800
H368        H  0.92283689  0.92503052  0.16607710     0.08400
H369        H  0.93900517  0.81031213  0.04444327     0.26800
H370        H  0.08303781  0.88299659  0.19367978     0.21600
H371        H  0.89485893  0.97893858  0.17921893     0.26900
H372        H  0.97941850  0.84757650  0.22247304     0.15700
C373        C  0.12131542  0.40620916  0.29771948    -0.11500
C374        C  0.13188529  0.44225242  0.30933629     0.15000
C375        C  0.16836959  0.45733267  0.29959826     0.01900
C376        C  0.19312104  0.43644963  0.27804722    -0.15900
C377        C  0.18197336  0.40102670  0.26485754    -0.10700
C378        C  0.14557342  0.38553429  0.27540989     0.08600
C379        C  0.10172766  0.46489664  0.32745402     0.09700
S380        S  0.18451035  0.50345544  0.31297038    -0.25000
H381        H  0.22095024  0.44870143  0.27066637     0.19900
S382        S  0.12848515  0.34040600  0.25989322    -0.30700
H383        H  0.09305038  0.39502478  0.30515336     0.10200
C384        C  0.07172108  0.48176185  0.30862587     0.03400
C385        C  0.03879762  0.49550485  0.32576572    -0.13000
C386        C  0.03398914  0.49289779  0.36218352    -0.08700
C387        C  0.06808943  0.48168044  0.38103312     0.06900
C388        C  0.10079359  0.46685140  0.36336180    -0.13800
S389        S  0.07342124  0.48216181  0.26206703    -0.30700
H390        H  0.01537263  0.50378375  0.30924181     0.11100
S391        S  0.07006884  0.48249857  0.42752760    -0.27800
H392        H  0.12502978  0.45500776  0.37752297     0.08400
H393        H  0.09169578  0.34078509  0.27616700     0.26800
H394        H  0.04069252  0.50546148  0.25673653     0.21600
H395        H  0.10856484  0.46944161  0.43125190     0.26900
H396        H  0.14764407  0.52084144  0.31266867     0.15700
C397        C  0.49612122  0.61355246  0.45040277    -0.11500
C398        C  0.52920486  0.60918457  0.42938364     0.15000
C399        C  0.54511182  0.57300170  0.42480492     0.01900
C400        C  0.53098261  0.54300288  0.44441825    -0.15900
C401        C  0.50023580  0.54719058  0.46895237    -0.10700
C402        C  0.48025897  0.58279851  0.46925952     0.08600
C403        C  0.54879705  0.64259385  0.41403540     0.09700
S404        S  0.58554856  0.56359712  0.39605863    -0.25000
H405        H  0.54662004  0.51644033  0.44246998     0.19900
S406        S  0.43432124  0.59041258  0.49132675    -0.30700
H407        H  0.48318888  0.64142551  0.45239920     0.10200
C408        C  0.53296956  0.66227277  0.38577896     0.03400
C409        C  0.55600544  0.68906998  0.36817470    -0.13000
C410        C  0.59460843  0.69619000  0.37815239    -0.08700
C411        C  0.60927098  0.67838136  0.40803530     0.06900
C412        C  0.58632115  0.65166123  0.42549592    -0.13800
S413        S  0.48477769  0.65107192  0.37050999    -0.30700
H414        H  0.54464925  0.70304011  0.34544992     0.11100
S415        S  0.65675903  0.68855193  0.42524037    -0.27800
H416        H  0.59824526  0.63683457  0.44758331     0.08400
H417        H  0.42742899  0.62756867  0.47950636     0.26800
H418        H  0.48421492  0.67767741  0.34335342     0.21600
H419        H  0.65620484  0.72725208  0.41622519     0.26900
H420        H  0.57582912  0.59145684  0.37149977     0.15700
C421        C  0.46234666  0.44269206  0.42222697    -0.11500
C422        C  0.48146308  0.40957350  0.43170385     0.15000
C423        C  0.51027748  0.41097574  0.45718776     0.01900
C424        C  0.51664198  0.44500520  0.47476639    -0.15900
C425        C  0.49262841  0.47728722  0.46975882    -0.10700
C426        C  0.46790233  0.47650502  0.43976693     0.08600
C427        C  0.46738596  0.37435828  0.41568014     0.09700
S428        S  0.53875082  0.37014338  0.46944092    -0.25000
H429        H  0.53984626  0.44518824  0.49323406     0.19900
S430        S  0.43991958  0.51665232  0.42352706    -0.30700
H431        H  0.44114183  0.44142951  0.40175438     0.10200
C432        C  0.43653219  0.35377792  0.43102362     0.03400
C433        C  0.41614906  0.32717355  0.41154728    -0.13000
C434        C  0.42586628  0.32080756  0.37692580    -0.08700
C435        C  0.45766407  0.34065987  0.36194616     0.06900
C436        C  0.47819922  0.36695347  0.38154154    -0.13800
S437        S  0.42130289  0.36350309  0.47466177    -0.30700
H438        H  0.39186984  0.31192709  0.42304808     0.11100
S439        S  0.47100719  0.33667302  0.31717935    -0.27800
H440        H  0.50104867  0.38368938  0.36940264     0.08400
H441        H  0.43176308  0.50237737  0.39070239     0.26800
H442        H  0.39206526  0.33564233  0.47688283     0.21600
H443        H  0.43238402  0.33661740  0.30521684     0.26900
H444        H  0.53257750  0.34909922  0.43949774     0.15700
C445        C  0.55674133  0.50699695  0.06817641    -0.11500
C446        C  0.58091986  0.53850158  0.06314543     0.15000
C447        C  0.58039851  0.55705633  0.03124898     0.01900
C448        C  0.55165340  0.54832483  0.00765229    -0.15900
C449        C  0.52323428  0.51910147  0.01287536    -0.10700
C450        C  0.52889780  0.49621146  0.04351564     0.08600
C451        C  0.60471198  0.55371132  0.09169122     0.09700
S452        S  0.61434416  0.59439264  0.01969764    -0.25000
H453        H  0.55156905  0.56749122  0.98618677     0.19900
S454        S  0.50119272  0.45459291  0.05617924    -0.30700
H455        H  0.55848318  0.49148375  0.09231282     0.10200
C456        C  0.59761228  0.59030899  0.10470466     0.03400
C457        C  0.62497500  0.60718100  0.12616524    -0.13000
C458        C  0.65931705  0.58833169  0.13563357    -0.08700
C459        C  0.66486243  0.55029839  0.12495986     0.06900
C460        C  0.63749888  0.53357221  0.10296120    -0.13800
S461        S  0.55431839  0.61646372  0.09314038    -0.30700
H462        H  0.61995356  0.63577690  0.13495075     0.11100
S463        S  0.70711295  0.52303950  0.13765459    -0.27800
H464        H  0.64250935  0.50539381  0.09311899     0.08400
H465        H  0.47640102  0.45082177  0.02830437     0.26800
H466        H  0.56112979  0.64841722  0.11355103     0.21600
H467        H  0.69758722  0.48951811  0.12037433     0.26900
H468        H  0.64543573  0.58067506  0.03962002     0.15700
C469        C  0.42264793  0.51416286  0.07224814    -0.11500
C470        C  0.39621748  0.48560998  0.06379211     0.15000
C471        C  0.38979688  0.47854354  0.02887587     0.01900
C472        C  0.41580329  0.49292254  0.00427609    -0.15900
C473        C  0.44804647  0.51635202  0.01269870    -0.10700
C474        C  0.44688574  0.53112627  0.04704282     0.08600
C475        C  0.37674841  0.46256314  0.09127084     0.09700
S476        S  0.34983991  0.44980381  0.01404645    -0.25000
H477        H  0.41725295  0.48653813  0.48222639     0.19900
S478        S  0.47486227  0.57098561  0.06168841    -0.30700
H479        H  0.42525826  0.52260052  0.09885489     0.10200
C480        C  0.38163377  0.42278739  0.09314603     0.03400
C481        C  0.35958006  0.40154000  0.11692919    -0.13000
C482        C  0.33282992  0.41893927  0.13922255    -0.08700
C483        C  0.33014495  0.45895479  0.13917573     0.06900
C484        C  0.35197401  0.48028302  0.11507466    -0.13800
S485        S  0.41591438  0.39868687  0.06534544    -0.30700
H486        H  0.36233666  0.37099628  0.11745993     0.11100
S487        S  0.29991312  0.48324642  0.17020386    -0.27800
H488        H  0.34899322  0.51079959  0.11409014     0.08400
H489        H  0.48610185  0.58524245  0.02948545     0.26800
H490        H  0.40810828  0.36161340  0.07701212     0.21600
H491        H  0.31223172  0.52020618  0.16176236     0.26900
H492        H  0.32498287  0.45673105  0.04224249     0.15700
C493        C  0.49491646  0.51288466  0.49443293    -0.02600
In494      In  0.25438969  0.34850530  0.69123788     1.36900
C495        C  0.20577754  0.38352600  0.73504126     0.77400
O496        O  0.20467480  0.34084045  0.65342069    -0.61000
O497        O  0.25078527  0.30135207  0.65178462    -0.51900
C498        C  0.30385927  0.39355622  0.65663589     0.70100
O499        O  0.26974609  0.40341760  0.66476162    -0.46800
C500        C  0.29348308  0.31055270  0.73995222     0.74800
O501        O  0.23004801  0.40086550  0.71617150    -0.58600
O502        O  0.26795779  0.29507644  0.72161131    -0.48700
O503        O  0.20542745  0.34823344  0.73034547    -0.55100
C504        C  0.21879565  0.31190345  0.63925727     0.85000
O505        O  0.31246517  0.36023615  0.66583985    -0.57000
O506        O  0.29950997  0.34495649  0.73291881    -0.60300
In507      In  0.84263774  0.74682444  0.56840584     1.36900
C508        C  0.88250689  0.69466855  0.53330207     0.77400
O509        O  0.83428360  0.69762900  0.60511577    -0.61000
O510        O  0.78899221  0.73818076  0.60307629    -0.51900
C511        C  0.88723259  0.79615841  0.60193205     0.70100
O512        O  0.89829250  0.77954858  0.57505264    -0.46800
C513        C  0.80660259  0.78842936  0.51969042     0.74800
O514        O  0.85083792  0.70861983  0.52289371    -0.58600
O515        O  0.79212692  0.75827730  0.53197816    -0.48700
O516        O  0.89369617  0.70728446  0.56175428    -0.55100
C517        C  0.80163674  0.70798876  0.61663437     0.85000
O518        O  0.85332345  0.78730652  0.61195102    -0.57000
O519        O  0.83853876  0.79769203  0.53293269    -0.60300
In520      In  0.74662706  0.85675600  0.94470508     1.36900
C521        C  0.70186998  0.89560513  0.98881328     0.77400
O522        O  0.69789789  0.84545922  0.90759763    -0.61000
O523        O  0.74738403  0.80993908  0.90452359    -0.51900
C524        C  0.78771549  0.90846970  0.90894832     0.70100
O525        O  0.75174292  0.90321395  0.90467006    -0.46800
C526        C  0.78318228  0.81006075  0.98899221     0.74800
O527        O  0.73505544  0.90692772  0.97919054    -0.58600
O528        O  0.74661776  0.81086331  0.98612420    -0.48700
O529        O  0.69198928  0.86447559  0.97598949    -0.55100
C530        C  0.71439663  0.81840477  0.89251447     0.85000
O531        O  0.80256412  0.88759413  0.93187885    -0.57000
O532        O  0.80102416  0.83171096  0.96825680    -0.60300
In533      In  0.74574156  0.64582661  0.69449793     1.36900
C534        C  0.78820820  0.59739592  0.73198483     0.77400
O535        O  0.79623050  0.65816083  0.65863928    -0.61000
O536        O  0.74732030  0.69442267  0.65513826    -0.51900
C537        C  0.69949165  0.60127893  0.65699094     0.70100
O538        O  0.73526522  0.59516403  0.66108202    -0.46800
C539        C  0.71518559  0.69124829  0.74293010     0.74000
O540        O  0.75153491  0.59658894  0.73179044    -0.58600
O541        O  0.74816061  0.69743271  0.72939113    -0.48700
O542        O  0.80294906  0.62453244  0.71507574    -0.55100
C543        C  0.78099700  0.68642584  0.64403996     0.85000
O544        O  0.68744826  0.63091100  0.67148205    -0.57000
O545        O  0.69848776  0.66204817  0.73207479    -0.60300
In546      In  0.16044296  0.25322546  0.56243346     1.36900
C547        C  0.11542939  0.21297947  0.60583234     0.77400
O548        O  0.16448348  0.20280570  0.52746616    -0.61000
O549        O  0.21122869  0.24180117  0.52554437    -0.51900
C550        C  0.12011156  0.29512826  0.51774690     0.70100
O551        O  0.10763148  0.26475621  0.53100183    -0.46800
C552        C  0.19919411  0.29179827  0.61094193     0.74800
O553        O  0.10430818  0.24320510  0.59145893    -0.58600
O554        O  0.21200613  0.26147181  0.59809536    -0.48700
O555        O  0.14966108  0.20310737  0.59765368    -0.55100
C556        C  0.19614211  0.21230979  0.51327799     0.85000
O557        O  0.15328463  0.30492739  0.52835939    -0.57000
O558        O  0.16768155  0.30319024  0.59797388    -0.60300
C559        C  0.98908733  0.01009081  0.74328973    -0.02600
C560        C  0.99278597  0.48715627  0.88100446    -0.02600
In561      In  0.65906697  0.76129095  0.81320633     1.36900
C562        C  0.61046206  0.72277442  0.85406693     0.77400
O563        O  0.66522599  0.70716004  0.78356987    -0.61000
O564        O  0.71002920  0.74783544  0.77723941    -0.51900
C565        C  0.62080697  0.80418035  0.76747817     0.70100
O566        O  0.60663564  0.77511046  0.78174811    -0.46800
C567        C  0.69604118  0.79865569  0.86349505     0.74800
O568        O  0.60003492  0.75149680  0.83703845    -0.58600
O569        O  0.71018796  0.76959145  0.84955536    -0.48700
O570        O  0.64577331  0.71358495  0.84990818    -0.55100
C571        C  0.69670469  0.71600939  0.76871922     0.85000
O572        O  0.65515301  0.81169571  0.77677061    -0.57000
O573        O  0.66420873  0.80941093  0.85078243    -0.60300
In574      In  0.35563972  0.25396964  0.81575162     1.36900
C575        C  0.40169428  0.21010629  0.77772098     0.77400
O576        O  0.34905638  0.21409451  0.86123104    -0.61000
O577        O  0.29764667  0.23805091  0.84063560    -0.51900
C578        C  0.40005266  0.29830884  0.85411856     0.70100
O579        O  0.41373019  0.27252551  0.83549954    -0.46800
C580        C  0.31468860  0.29038668  0.76734113     0.74800
O581        O  0.40055029  0.24552327  0.77394179    -0.58600
O582        O  0.31152671  0.25522993  0.77275275    -0.48700
O583        O  0.37832164  0.19709344  0.80008317    -0.55100
C584        C  0.31249118  0.21659289  0.86311234     0.85000
O585        O  0.36341630  0.30142296  0.85325393    -0.57000
O586        O  0.33780269  0.30700045  0.78723781    -0.60300
C587        C  0.48997201  0.00275169  0.62316137    -0.02600
In588      In  0.24693486  0.15162315  0.93201320     1.36900
C589        C  0.20123114  0.11735590  0.88618763     0.77400
O590        O  0.19891132  0.17201194  0.96684140    -0.61000
O591        O  0.25485688  0.19575142  0.97413394    -0.51900
C592        C  0.27663340  0.09397637  0.96854817     0.70100
O593        O  0.29516793  0.11029490  0.94447447    -0.46800
C594        C  0.28922520  0.19529435  0.88885663     0.74800
O595        O  0.23467880  0.10545688  0.89400513    -0.58600
O596        O  0.25251542  0.19645299  0.89011883    -0.48700
O597        O  0.19079419  0.14626993  0.90266095    -0.55100
C598        C  0.21983689  0.19381973  0.98428145     0.85000
O599        O  0.24269259  0.10658330  0.97333623    -0.57000
O600        O  0.30440085  0.17351092  0.91089921    -0.60300
C601        C  0.40891632  0.04918667  0.56760866    -0.11500
C602        C  0.38073328  0.02093631  0.56606630     0.15000
C603        C  0.38776166  0.98572426  0.58214488     0.01900
C604        C  0.42302469  0.97971546  0.59962528    -0.15900
C605        C  0.45247507  0.00783986  0.60095501    -0.10700
C606        C  0.44436747  0.04341747  0.58416747     0.08600
C607        C  0.34630037  0.02966744  0.54469487     0.09700
S608        S  0.35292827  0.94752520  0.58156680    -0.25000
H609        H  0.42634464  0.95328326  0.61346502     0.19900
S610        S  0.48002767  0.08103459  0.57943073    -0.30700
H611        H  0.40356616  0.07574058  0.55424667     0.10200
C612        C  0.31677161  0.05392714  0.55701070     0.03400
C613        C  0.29223065  0.07247714  0.53351226    -0.13000
C614        C  0.29421780  0.06469088  0.99112837    -0.08700
C615        C  0.32142781  0.03792971  0.97879494     0.06900
C616        C  0.34887012  0.02221977  0.50939927    -0.13800
S617        S  0.31273270  0.06366086  0.60243434    -0.30700
H618        H  0.27088390  0.09267293  0.54273026     0.11100
S619        S  0.32873400  0.03134782  0.93319725    -0.27800
H620        H  0.37183518  0.00376953  0.50015659     0.08400
H621        H  0.45391998  0.11041092  0.57109356     0.26800
H622        H  0.28275843  0.09074494  0.59991114     0.21600
H623        H  0.35224065  0.99879907  0.93597450     0.26900
H624        H  0.31969171  0.96999434  0.57605851     0.15700
C625        C  0.44787461  0.07115094  0.69235328    -0.11500
C626        C  0.47529802  0.10016497  0.69289148     0.15000
C627        C  0.50924446  0.09731501  0.67250435     0.01900
C628        C  0.51419776  0.06601105  0.65092246    -0.15900
C629        C  0.48606962  0.03660525  0.64912843    -0.10700
C630        C  0.45249895  0.03968561  0.67133427     0.08600
C631        C  0.46567158  0.13302155  0.71465762     0.09700
S632        S  0.54689126  0.13298184  0.67219273    -0.25000
H633        H  0.53958146  0.06616770  0.63437027     0.19900
S634        S  0.41589984  0.00285947  0.67582501    -0.30700
H635        H  0.42234327  0.07338211  0.70880783     0.10200
C636        C  0.45045465  0.16669012  0.70030273     0.03400
C637        C  0.43204514  0.19302443  0.72188546    -0.13000
C638        C  0.42779722  0.18572547  0.75729649    -0.08700
C639        C  0.44587173  0.15348181  0.77184820     0.06900
C640        C  0.46427073  0.12737210  0.75038950    -0.13800
S641        S  0.45089747  0.17426704  0.65427432    -0.30700
H642        H  0.41850503  0.21799871  0.71085219     0.11100
S643        S  0.44588189  0.14376365  0.81747609    -0.27800
H644        H  0.47605389  0.10152610  0.76143401     0.08400
H645        H  0.38761196  0.02378615  0.69388646     0.26800
H646        H  0.43485322  0.21093706  0.65466952     0.21600
H647        H  0.44731962  0.18199394  0.82730454     0.26900
H648        H  0.53879818  0.14747299  0.70501966     0.15700
C649        C  0.59109917  0.87404695  0.69662118    -0.11500
C650        C  0.55030812  0.87225533  0.69937085     0.15000
C651        C  0.53308414  0.84680690  0.72311561     0.01900
C652        C  0.55690949  0.82472815  0.74437715    -0.15900
C653        C  0.59785158  0.82741478  0.74277236    -0.10700
C654        C  0.61512770  0.85201310  0.71805942     0.08600
C655        C  0.52727278  0.90197071  0.68170945     0.09700
S656        S  0.48098151  0.84295762  0.72904430    -0.25000
H657        H  0.54316430  0.80596568  0.76306971     0.19900
S658        S  0.66746364  0.85563064  0.71328793    -0.30700
H659        H  0.60401401  0.89398041  0.67850154     0.10200
C660        C  0.51873330  0.93569782  0.69861555     0.03400
C661        C  0.50267352  0.96591122  0.68024135    -0.13000
C662        C  0.49407204  0.96428582  0.64438656    -0.08700
C663        C  0.50022104  0.92818452  0.62842335     0.06900
C664        C  0.51698009  0.89801840  0.64724940    -0.13800
S665        S  0.53184854  0.94162966  0.74329615    -0.30700
H666        H  0.50064434  0.99179868  0.69434528     0.11100
S667        S  0.49040300  0.91983483  0.58352479    -0.27800
H668        H  0.52356157  0.87144272  0.63483265     0.08400
H669        H  0.66778314  0.88356836  0.68723459     0.26800
H670        H  0.51668397  0.97831169  0.74761721     0.21600
H671        H  0.50390462  0.88228927  0.58178654     0.26900
H672        H  0.47064482  0.85529500  0.69588504     0.15700
C673        C  0.12046102  0.09547061  0.82226440    -0.11500
C674        C  0.12816102  0.05731800  0.81513787     0.15000
C675        C  0.16121064  0.03984774  0.82965300     0.01900
C676        C  0.18487237  0.06039519  0.85201391    -0.15900
C677        C  0.17651145  0.09830066  0.86027016    -0.10700
C678        C  0.14434490  0.11622593  0.84422295     0.08600
C679        C  0.09785678  0.03568383  0.79680773     0.09700
S680        S  0.17334294  0.99087206  0.82236034    -0.25000
H681        H  0.20948419  0.04620981  0.86378906     0.19900
S682        S  0.13200549  0.16531762  0.85040339    -0.30700
H683        H  0.09499416  0.10894881  0.81119407     0.10200
C684        C  0.06642670  0.02010782  0.81513214     0.03400
C685        C  0.03360399  0.00777019  0.79741799    -0.13000
C686        C  0.03066885  0.00990667  0.76088888    -0.08700
C687        C  0.06569689  0.02057171  0.74265827     0.06900
C688        C  0.09801253  0.03438216  0.76089946    -0.13800
S689        S  0.06607960  0.01998211  0.86167329    -0.30700
H690        H  0.00903012  0.00063289  0.81343618     0.11100
S691        S  0.06967203  0.01991407  0.69619202    -0.27800
H692        H  0.12313013  0.04561059  0.74719907     0.08400
H693        H  0.17071702  0.17808763  0.84684880     0.26800
H694        H  0.03349664  0.99620712  0.86623648     0.21600
H695        H  0.10800483  0.03371870  0.69308304     0.26900
H696        H  0.15615827  0.98830161  0.78979908     0.15700
C697        C  0.02154124  0.38392050  0.90419212    -0.11500
C698        C  0.02441287  0.38658368  0.93995741     0.15000
C699        C  0.00538402  0.41641166  0.95664097     0.01900
C700        C  0.99035577  0.44636564  0.93729323    -0.15900
C701        C  0.99251561  0.44764330  0.90066834    -0.10700
C702        C  0.00447057  0.41315834  0.88439672     0.08600
C703        C  0.05218356  0.36202396  0.95898268     0.09700
S704        S  0.00337167  0.42005703  0.00293506    -0.25000
H705        H  0.98112181  0.47016266  0.95230117     0.19900
S706        S  0.00200673  0.40660134  0.83837014    -0.30700
H707        H  0.03485702  0.35986301  0.89166055     0.10200
C708        C  0.04442578  0.32367013  0.96616445     0.03400
C709        C  0.05665792  0.30862024  0.49011508    -0.13000
C710        C  0.09666011  0.31715077  0.49256456    -0.08700
C711        C  0.11197958  0.35816668  0.99287942     0.06900
C712        C  0.08617395  0.37865648  0.97191597    -0.13800
S713        S  0.00113360  0.30145491  0.94966024    -0.30700
H714        H  0.04449781  0.28570692  0.50546006     0.11100
S715        S  0.15413951  0.38197123  0.01003613    -0.27800
H716        H  0.09185412  0.40820823  0.96617638     0.08400
H717        H  0.01891147  0.37033790  0.83711604     0.26800
H718        H  0.98059383  0.29058849  0.49292715     0.21600
H719        H  0.17538843  0.31995807  0.46743249     0.26900
H720        H  0.97874939  0.44819228  0.50111536     0.15700
C721        C  0.01124889  0.11601883  0.72287087    -0.11500
C722        C  0.01408583  0.11531102  0.68696838     0.15000
C723        C  0.99869700  0.08427096  0.66943984     0.01900
C724        C  0.98526433  0.05274579  0.68814719    -0.15900
C725        C  0.98725702  0.05027536  0.72472503    -0.10700
C726        C  0.99715760  0.08469276  0.74196565     0.08600
C727        C  0.03877850  0.14387450  0.66871561     0.09700
S728        S  0.00174541  0.08176791  0.62302325    -0.25000
H729        H  0.97824668  0.02854152  0.67292001     0.19900
S730        S  0.99644480  0.08886471  0.78833355    -0.30700
H731        H  0.02247404  0.14052554  0.73606019     0.10200
C732        C  0.02344610  0.17041702  0.64510714     0.03400
C733        C  0.04905523  0.19332454  0.62556828    -0.13000
C734        C  0.08976874  0.19067128  0.62946672    -0.08700
C735        C  0.10469190  0.16594503  0.65501430     0.06900
C736        C  0.07922334  0.14246303  0.67377461    -0.13800
S737        S  0.97136737  0.17511954  0.63992751    -0.30700
H738        H  0.03732344  0.21282078  0.60664217     0.11100
S739        S  0.15564883  0.16384765  0.66583555    -0.27800
H740        H  0.09108987  0.12260804  0.69239506     0.08400
H741        H  0.00340297  0.12805642  0.78994241     0.26800
H742        H  0.97270589  0.20146764  0.61256940     0.21600
H743        H  0.16149318  0.20322337  0.66299388     0.26900
H744        H  0.97640809  0.05078879  0.61918517     0.15700
C745        C  0.92439431  0.53549400  0.81431583    -0.11500
C746        C  0.89556267  0.50847941  0.80936604     0.15000
C747        C  0.89895788  0.47276597  0.82564296     0.01900
C748        C  0.93060531  0.46563733  0.84766223    -0.15900
C749        C  0.95964306  0.49329194  0.85381010    -0.10700
C750        C  0.95607850  0.52881277  0.83565780     0.08600
C751        C  0.86236940  0.52092025  0.78781340     0.09700
S752        S  0.86361003  0.43556608  0.82016677    -0.25000
H753        H  0.93124761  0.43876507  0.86116739     0.19900
S754        S  0.99216695  0.56634760  0.83748581    -0.30700
H755        H  0.92152787  0.56265542  0.80139328     0.10200
C756        C  0.82750201  0.53426895  0.80294458     0.03400
C757        C  0.80235228  0.55749330  0.78356983    -0.13000
C758        C  0.81205476  0.56840903  0.74972547    -0.08700
C759        C  0.84546013  0.55260203  0.73390460     0.06900
C760        C  0.87015684  0.52917151  0.75305571    -0.13800
S761        S  0.81710476  0.52500071  0.84785755    -0.30700
H762        H  0.77643349  0.56920860  0.79548978     0.11100
S763        S  0.85877547  0.56203722  0.68965148    -0.27800
H764        H  0.89705910  0.51921645  0.74140941     0.08400
H765        H  0.97502707  0.59226287  0.81445619     0.26800
H766        H  0.78022778  0.54245207  0.84864268     0.21600
H767        H  0.82027545  0.56427304  0.67755114     0.26900
H768        H  0.84832536  0.44895053  0.78890982     0.15700
C769        C  0.86881696  0.97353385  0.87667774    -0.11500
C770        C  0.86108906  0.97459860  0.84126103     0.15000
C771        C  0.82659562  0.95755004  0.82913125     0.01900
C772        C  0.80180033  0.93849577  0.85232565    -0.15900
C773        C  0.81087899  0.93522927  0.88738868    -0.10700
C774        C  0.84400117  0.95440282  0.89983541     0.08600
C775        C  0.89322865  0.98585886  0.81748877     0.09700
S776        S  0.81453041  0.95519059  0.78407826    -0.25000
H777        H  0.77647491  0.92395544  0.84245731     0.19900
S778        S  0.85648676  0.95503854  0.94477908    -0.30700
H779        H  0.89533394  0.98630932  0.88614050     0.10200
C780        C  0.89604737  0.02180077  0.80181167     0.03400
C781        C  0.92692206  0.02957040  0.77862782    -0.13000
C782        C  0.95613369  0.00236688  0.77103285    -0.08700
C783        C  0.95277079  0.96612997  0.78813346     0.06900
C784        C  0.92167840  0.95880980  0.81067879    -0.13800
S785        S  0.85952549  0.05731039  0.81057074    -0.30700
H786        H  0.92707600  0.05660509  0.76550783     0.11100
S787        S  0.98880624  0.92877082  0.78390053    -0.27800
H788        H  0.91940560  0.93154066  0.82353498     0.08400
H789        H  0.81767554  0.95478644  0.95684396     0.26800
H790        H  0.87196916  0.08356370  0.78534908     0.21600
H791        H  0.96781631  0.89946783  0.80033981     0.26900
H792        H  0.83581979  0.98687816  0.77282960     0.15700
C793        C  0.56773061  0.98729884  0.54945515    -0.11500
C794        C  0.60065531  0.98056748  0.56932572     0.15000
C795        C  0.59939649  0.98902724  0.60447968     0.01900
C796        C  0.56406919  0.00013003  0.61956587    -0.15900
C797        C  0.52869218  0.00315432  0.60080977    -0.10700
C798        C  0.53192130  0.99823627  0.56398654     0.08600
C799        C  0.63357269  0.96028749  0.55268711     0.09700
S800        S  0.64122179  0.98373977  0.63191391    -0.25000
H801        H  0.56365309  0.00373137  0.64719101     0.19900
S802        S  0.49216821  0.99879797  0.53348747    -0.30700
H803        H  0.56937531  0.98062318  0.52232629     0.10200
C804        C  0.63879023  0.92097822  0.55771629     0.03400
C805        C  0.64890783  0.89509899  0.03239275    -0.13000
C806        C  0.67627435  0.91628736  0.01322145    -0.08700
C807        C  0.68107094  0.95936824  0.50560735     0.06900
C808        C  0.65544848  0.97913335  0.52719068    -0.13800
S809        S  0.58594081  0.88445084  0.07704440    -0.30700
H810        H  0.64819601  0.86461696  0.02971913     0.11100
S811        S  0.70474743  0.98606806  0.47168580    -0.27800
H812        H  0.65092832  0.00918980  0.52289853     0.08400
H813        H  0.51444307  0.00768272  0.50392728     0.26800
H814        H  0.59691018  0.84920172  0.06347477     0.21600
H815        H  0.69627040  0.95963292  0.44594217     0.26900
H816        H  0.66940340  0.98855781  0.60576608     0.15700
C817        C  0.93974940  0.55564645  0.94404880    -0.11500
C818        C  0.96718168  0.58410709  0.94856011     0.15000
C819        C  0.00433414  0.58062626  0.93331067     0.01900
C820        C  0.01265796  0.54914865  0.91270559    -0.15900
C821        C  0.98486945  0.52020911  0.90697468    -0.10700
C822        C  0.94762008  0.52409904  0.92389117     0.08600
C823        C  0.95370805  0.61778922  0.96747838     0.09700
S824        S  0.04151378  0.61637524  0.93723052    -0.25000
H825        H  0.04055653  0.54877775  0.89966145     0.19900
S826        S  0.90891661  0.48926037  0.92135224    -0.30700
H827        H  0.91121558  0.55886976  0.95585910     0.10200
C828        C  0.92944262  0.64458860  0.95121294     0.03400
C829        C  0.90822757  0.67032498  0.97122677    -0.13000
C830        C  0.90482214  0.66644924  0.51329399    -0.08700
C831        C  0.92495915  0.63592505  0.52896714     0.06900
C832        C  0.95766119  0.61823792  0.00330819    -0.13800
S833        S  0.92412858  0.64462769  0.90499944    -0.30700
H834        H  0.88900674  0.69051183  0.95883563     0.11100
S835        S  0.92288516  0.62642387  0.57458919    -0.27800
H836        H  0.95968419  0.58603868  0.52040130     0.08400
H837        H  0.88737084  0.50075741  0.95038390     0.26800
H838        H  0.89849218  0.67566722  0.90293442     0.21600
H839        H  0.88319635  0.63582519  0.57825235     0.26900
H840        H  0.02815022  0.63173247  0.96834417     0.15700
C841        C  0.95543459  0.87816673  0.62133828    -0.11500
C842        C  0.95367975  0.87854170  0.65738378     0.15000
C843        C  0.93218851  0.85020072  0.67499930     0.01900
C844        C  0.91114155  0.82352649  0.65633081    -0.15900
C845        C  0.91182329  0.82374374  0.62025166    -0.10700
C846        C  0.93499392  0.85086807  0.60255459     0.08600
C847        C  0.96597466  0.91321090  0.67544363     0.09700
S848        S  0.92843747  0.84829826  0.72129671    -0.25000
H849        H  0.89379601  0.80258491  0.67010485     0.19900
S850        S  0.93541446  0.85367407  0.55612994    -0.30700
H851        H  0.97088158  0.90069630  0.60792725     0.10200
C852        C  0.00364489  0.91855198  0.68840568     0.03400
C853        C  0.01133667  0.95014073  0.70913951    -0.13000
C854        C  0.98230688  0.97760429  0.71657292    -0.08700
C855        C  0.94494997  0.97264950  0.70068290     0.06900
C856        C  0.93755883  0.94061001  0.68105916    -0.13800
S857        S  0.04117985  0.88389622  0.68027939    -0.30700
H858        H  0.03947672  0.95170797  0.72119338     0.11100
S859        S  0.90539485  0.00651975  0.70439127    -0.27800
H860        H  0.90879730  0.93621921  0.67048416     0.08400
H861        H  0.96758504  0.87823300  0.55312271     0.26800
H862        H  0.07222855  0.90515084  0.69353103     0.21600
H863        H  0.88270211  0.99337967  0.67699637     0.26900
H864        H  0.96544745  0.86367752  0.72756598     0.15700
C865        C  0.12760110  0.40591437  0.80270771    -0.11500
C866        C  0.13420450  0.44458191  0.80799762     0.15000
C867        C  0.16519086  0.46266340  0.79041717     0.01900
C868        C  0.18814148  0.44193293  0.76725446    -0.15900
C869        C  0.18079117  0.40335435  0.76082128    -0.10700
C870        C  0.14997602  0.38519213  0.77906758     0.08600
C871        C  0.10313825  0.46589159  0.82610476     0.09700
S872        S  0.17536966  0.51248367  0.79485446    -0.25000
H873        H  0.21161271  0.45638519  0.75370010     0.19900
S874        S  0.13683365  0.33643554  0.77140451    -0.30700
H875        H  0.10324623  0.39248851  0.81590011     0.10200
C876        C  0.07017816  0.47744249  0.80790830     0.03400
C877        C  0.03656728  0.48795443  0.82584300    -0.13000
C878        C  0.03416505  0.48810780  0.86247759    -0.08700
C879        C  0.06998617  0.48093137  0.88032834     0.06900
C880        C  0.10338272  0.46906194  0.86192256    -0.13800
S881        S  0.06914208  0.47413823  0.76146823    -0.30700
H882        H  0.01126446  0.49180449  0.81015030     0.11100
S883        S  0.07379417  0.48293823  0.92667101    -0.27800
H884        H  0.12927937  0.46023151  0.87557955     0.08400
H885        H  0.10063148  0.33694182  0.78869643     0.26800
H886        H  0.03329678  0.49271169  0.75649494     0.21600
H887        H  0.11469114  0.48092263  0.92851942     0.26900
H888        H  0.15900202  0.51635549  0.82788008     0.15700
C889        C  0.48028186  0.61809857  0.94498439    -0.11500
C890        C  0.51246011  0.61518383  0.92271318     0.15000
C891        C  0.52831774  0.57938367  0.91605646     0.01900
C892        C  0.51672355  0.54868731  0.93609766    -0.15900
C893        C  0.48804460  0.55171495  0.96266820    -0.10700
C894        C  0.46624077  0.58629989  0.96356899     0.08600
C895        C  0.53301184  0.64934439  0.90988503     0.09700
S896        S  0.56642811  0.57168715  0.88453847    -0.25000
H897        H  0.53317419  0.52276769  0.93287004     0.19900
S898        S  0.42020009  0.59139171  0.98598504    -0.30700
H899        H  0.46679871  0.64555065  0.94845586     0.10200
C900        C  0.51889041  0.67135216  0.88231216     0.03400
C901        C  0.54414153  0.69711195  0.86565369    -0.13000
C902        C  0.58313806  0.70095675  0.87611931    -0.08700
C903        C  0.59575431  0.68149797  0.90590018     0.06900
C904        C  0.57068546  0.65586452  0.92229456    -0.13800
S905        S  0.47007727  0.66425866  0.86660850    -0.30700
H906        H  0.53422601  0.71253153  0.84315738     0.11100
S907        S  0.64354677  0.68764872  0.92401205    -0.27800
H908        H  0.58126668  0.63939288  0.94398407     0.08400
H909        H  0.40833661  0.62499679  0.96935727     0.26800
H910        H  0.47106612  0.69326274  0.84155177     0.21600
H911        H  0.64618665  0.72648016  0.91579136     0.26900
H912        H  0.55485962  0.60094154  0.86203594     0.15700
C913        C  0.45827689  0.44343804  0.91822994    -0.11500
C914        C  0.47951079  0.41188549  0.92864940     0.15000
C915        C  0.50826927  0.41585319  0.95385998     0.01900
C916        C  0.51223146  0.45068689  0.97057491    -0.15900
C917        C  0.48584068  0.48107921  0.96490862    -0.10700
C918        C  0.46099863  0.47785060  0.93524012     0.08600
C919        C  0.46621031  0.37530820  0.91501372     0.09700
S920        S  0.53908064  0.37716061  0.96728959    -0.25000
H921        H  0.53510152  0.45273695  0.98928989     0.19900
S922        S  0.42900507  0.51520446  0.91933035    -0.30700
H923        H  0.43709773  0.44010372  0.89794523     0.10200
C924        C  0.43118054  0.35950663  0.92778432     0.03400
C925        C  0.41062190  0.33371546  0.90769686    -0.13000
C926        C  0.42473004  0.32292872  0.87527983    -0.08700
C927        C  0.46136513  0.33669067  0.86368165     0.06900
C928        C  0.48162856  0.36282018  0.88364046    -0.13800
S929        S  0.41131411  0.37456408  0.96864376    -0.30700
H930        H  0.38299202  0.32255511  0.91688685     0.11100
S931        S  0.48203652  0.32503675  0.82233860    -0.27800
H932        H  0.50805380  0.37567523  0.87346166     0.08400
H933        H  0.42066488  0.49952680  0.88708718     0.26800
H934        H  0.37712850  0.35261960  0.96776956     0.21600
H935        H  0.44674752  0.32890230  0.80442325     0.26900
H936        H  0.53583798  0.35592179  0.93709930     0.15700
C937        C  0.56794218  0.49323444  0.57190820    -0.11500
C938        C  0.59260187  0.52470868  0.56925274     0.15000
C939        C  0.58858351  0.54940589  0.54128860     0.01900
C940        C  0.55958617  0.54304110  0.51722223    -0.15900
C941        C  0.53211934  0.51244939  0.51928411    -0.10700
C942        C  0.53793083  0.48665297  0.54793797     0.08600
C943        C  0.62014236  0.53468677  0.59707669     0.09700
S944        S  0.61860951  0.59161256  0.53743048    -0.25000
H945        H  0.55748845  0.56538396  0.49860431     0.19900
S946        S  0.50787769  0.44614459  0.55916263    -0.30700
H947        H  0.57107268  0.47439276  0.59388953     0.10200
C948        C  0.60692716  0.55456143  0.62620199     0.03400
C949        C  0.63360995  0.57520863  0.64575558    -0.13000
C950        C  0.67352498  0.57585038  0.63731245    -0.08700
C951        C  0.68723486  0.55299679  0.61000160     0.06900
C952        C  0.66033305  0.53277322  0.59019685    -0.13800
S953        S  0.55570947  0.55579960  0.63718701    -0.30700
H954        H  0.62315590  0.59178961  0.66722650     0.11100
S955        S  0.73821058  0.55207934  0.59778217    -0.27800
H956        H  0.67019662  0.51779559  0.56755964     0.08400
H957        H  0.48056210  0.44726233  0.53294796     0.26800
H958        H  0.55962138  0.57479887  0.66860686     0.21600
H959        H  0.73527205  0.52392114  0.57258781     0.26900
H960        H  0.59670288  0.61092535  0.51235302     0.15700
C961        C  0.43056306  0.51033935  0.57716682    -0.11500
C962        C  0.40193594  0.48465127  0.56697372     0.15000
C963        C  0.39565897  0.47990489  0.53173807     0.01900
C964        C  0.42293874  0.49389374  0.50811495    -0.15900
C965        C  0.45693193  0.51397983  0.51801287    -0.10700
C966        C  0.45653699  0.52675211  0.55303996     0.08600
C967        C  0.37999266  0.46178003  0.59289410     0.09700
S968        S  0.35450889  0.45404126  0.51522783    -0.25000
H969        H  0.41066536  0.48327564  0.97886053     0.19900
S970        S  0.48681582  0.56414998  0.56948642    -0.30700
H971        H  0.43324620  0.51708101  0.60417230     0.10200
C972        C  0.38402454  0.42196508  0.59449237     0.03400
C973        C  0.35975122  0.40076040  0.61645980    -0.13000
C974        C  0.33112521  0.41822808  0.63681173    -0.08700
C975        C  0.32842316  0.45828419  0.63655656     0.06900
C976        C  0.35302640  0.47958937  0.61465833    -0.13800
S977        S  0.41932244  0.39765526  0.56793782    -0.30700
H978        H  0.36209817  0.37017870  0.61676665     0.11100
S979        S  0.29460889  0.48274425  0.66448805    -0.27800
H980        H  0.35059970  0.51015365  0.61370476     0.08400
H981        H  0.49575146  0.58117421  0.53779038     0.26800
H982        H  0.41523800  0.36168483  0.58340831     0.21600
H983        H  0.30046135  0.51924435  0.65057343     0.26900
H984        H  0.32909833  0.46203601  0.54279214     0.15700
loop_ 
_geom_bond_atom_site_label_1 
_geom_bond_atom_site_label_2 
_geom_bond_distance 
_geom_bond_site_symmetry_2 
_ccdc_geom_bond_type 
C1          C449   1.603   1_556  S
C1          C473   1.589   1_556  S
C1          C893   1.573       .  S
C1          C917   1.585       .  S
In2           O4   2.270       .  S
In2           O5   2.274       .  S
In2          O13   2.258       .  S
In2           O7   2.252       .  S
In2           O9   2.251       .  S
In2          O10   2.266       .  S
In2          O11   2.262       .  S
In2          O14   2.252       .  S
C3            O9   1.260       .  A
C3           O11   1.262       .  A
C3          C377   1.495       .  S
O4           C12   1.261       .  A
O5           C12   1.260       .  A
C6           O13   1.262       .  A
C6            O7   1.259       .  A
C6          C482   1.486       .  S
C8           O10   1.260       .  A
C8           O14   1.259       .  A
C8           C88   1.471       .  S
C12          C60   1.481       .  S
In15         O17   2.255       .  S
In15         O18   2.271       .  S
In15         O26   2.255       .  S
In15         O20   2.252       .  S
In15         O22   2.253       .  S
In15         O23   2.276       .  S
In15         O24   2.248       .  S
In15         O27   2.252       .  S
C16          O22   1.260       .  A
C16          O24   1.256       .  A
C16         C338   1.477       .  S
O17          C25   1.260       .  A
O18          C25   1.262       .  A
C19          O26   1.258       .  A
C19          O20   1.259       .  A
C19         C353   1.478       .  S
C21          O23   1.264       .  A
C21          O27   1.260       .  A
C21         C526   1.476   1_554  S
C25          C51   1.475       .  S
In28         O30   2.267       .  S
In28         O31   2.278       .  S
In28         O39   2.250       .  S
In28         O33   2.251       .  S
In28         O35   2.254       .  S
In28         O36   2.276       .  S
In28         O37   2.257       .  S
In28         O40   2.259       .  S
C29          O35   1.258       .  A
C29          O37   1.260       .  A
C29         C314   1.484       .  S
O30          C38   1.259       .  A
O31          C38   1.262       .  A
C32          O39   1.263       .  A
C32          O33   1.260       .  A
C32         C281   1.479       .  S
C34          O36   1.262       .  A
C34          O40   1.260       .  A
C34         C513   1.478       .  S
C38          C75   1.480       .  S
In41         O43   2.259       .  S
In41         O44   2.274       .  S
In41         O52   2.252       .  S
In41         O46   2.249       .  S
In41         O48   2.250       .  S
In41         O49   2.274       .  S
In41         O50   2.257       .  S
In41         O53   2.253       .  S
C42          O48   1.258       .  A
C42          O50   1.260       .  A
C42         C266   1.483       .  S
O43          C51   1.259       .  A
O44          C51   1.260       .  A
C45          O52   1.263       .  A
C45          O46   1.256       .  A
C45         C458   1.490       .  S
C47          O49   1.261       .  A
C47          O53   1.260       .  A
C47          C79   1.475       .  S
In54         O56   2.243       .  S
In54         O57   2.293       .  S
In54         O65   2.258       .  S
In54         O59   2.235       .  S
In54         O61   2.252       .  S
In54         O62   2.279       .  S
In54         O63   2.258       .  S
In54         O66   2.266       .  S
C55          O61   1.260       .  A
C55          O63   1.262       .  A
C55         C242   1.492       .  S
O56          C64   1.257       .  A
O57          C64   1.264       .  A
C58          O65   1.264       .  A
C58          O59   1.260       .  A
C58         C218   1.486       .  S
C60          O62   1.262       .  A
C60          O66   1.259       .  A
C64         C598   1.478   1_554  S
C67         C194   1.584       .  S
C67         C233   1.585   1_565  S
C67         C290   1.575   1_455  S
C67         C362   1.572   1_455  S
C68         C209   1.583       .  S
C68         C257   1.572       .  S
C68         C329   1.574       .  S
C68         C386   1.589   1_655  S
In69         O71   2.252       .  S
In69         O72   2.279       .  S
In69         O80   2.279       .  S
In69         O74   2.233       .  S
In69         O76   2.235       .  S
In69         O77   2.276       .  S
In69         O78   2.246       .  S
In69         O81   2.273       .  S
C70          O76   1.259       .  A
C70          O78   1.262       .  A
C70         C410   1.474       .  S
O71          C79   1.258       .  A
O72          C79   1.262       .  A
C73          O80   1.265       .  A
C73          O74   1.258       .  A
C73         C161   1.495       .  S
C75          O77   1.259       .  A
C75          O81   1.260       .  A
In82         O84   2.250       .  S
In82         O85   2.267       .  S
In82         O93   2.247       .  S
In82         O87   2.253       .  S
In82         O89   2.252       .  S
In82         O90   2.265       .  S
In82         O91   2.247       .  S
In82         O94   2.251       .  S
C83          O89   1.258       .  A
C83          O91   1.258       .  A
C83         C146   1.478       .  S
O84          C92   1.260       .  A
O85          C92   1.263       .  A
C86          O93   1.260       .  A
C86          O87   1.259       .  A
C86         C434   1.478       .  S
C88          O90   1.261       .  A
C88          O94   1.260       .  A
C92         C102   1.472       .  S
C95         C113   1.564       .  S
C95         C137   1.577   1_565  S
C95         C170   1.593       .  S
C95         C305   1.585       .  S
In96         O98   2.255       .  S
In96         O99   2.278       .  S
In96        O107   2.258       .  S
In96        O101   2.247       .  S
In96        O103   2.252       .  S
In96        O104   2.262       .  S
In96        O105   2.266       .  S
In96        O108   2.252       .  S
C97         O103   1.258       .  A
C97         O105   1.261       .  A
C97         C185   1.489       .  S
O98         C106   1.261       .  A
O99         C106   1.262       .  A
C100        O107   1.260       .  A
C100        O101   1.261       .  A
C100        C122   1.479       .  S
C102        O104   1.261       .  A
C102        O108   1.261       .  A
C106        C556   1.478       .  S
C109        C110   1.392       .  A
C109        C114   1.394       .  A
C109        H119   1.084       .  S
C110        C115   1.482       .  S
C110        C111   1.409   1_545  A
C111        C112   1.409       .  A
C111        S116   1.803       .  S
C112        C113   1.418       .  A
C112        H117   1.079       .  S
C113        C114   1.438   1_565  A
C114        S118   1.812       .  S
C115        C120   1.409       .  A
C115        C124   1.403       .  A
S116        H132   1.404       .  S
S118        H129   1.407       .  S
C120        C121   1.403       .  A
C120        S125   1.807       .  S
C121        C614   1.404   1_554  A
C121        H126   1.083       .  S
C122        C123   1.411       .  A
C122        C613   1.404       .  A
C123        C616   1.404       .  A
C123        S127   1.806       .  S
C124        C615   1.406   1_554  A
C124        H128   1.083   1_544  S
S125        H130   1.407       .  S
S127        H131   1.407       .  S
C133        C134   1.391       .  A
C133        C138   1.395       .  A
C133        H143   1.083       .  S
C134        C139   1.474       .  S
C134        C135   1.405       .  A
C135        C136   1.400       .  A
C135        S140   1.804       .  S
C136        C137   1.420       .  A
C136        H141   1.077       .  S
C137        C138   1.439       .  A
C138        S142   1.815   1_545  S
C139        C144   1.407       .  A
C139        C148   1.401       .  A
S140        H156   1.405       .  S
S142        H153   1.406   1_565  S
C144        C145   1.402       .  A
C144        S149   1.808       .  S
C145        C146   1.406       .  A
C145        H150   1.083       .  S
C146        C147   1.415       .  A
C147        C148   1.398       .  A
C147        S151   1.802       .  S
C148        H152   1.084       .  S
S149        H154   1.406       .  S
S151        H155   1.407       .  S
C157        C158   1.404       .  A
C157        C162   1.408       .  A
C157        H167   1.082       .  S
C158        C163   1.485       .  S
C158        C159   1.409       .  A
C159        C160   1.400       .  A
C159        S164   1.805       .  S
C160        C161   1.410       .  A
C160        H165   1.083       .  S
C161        C162   1.418       .  A
C162        S166   1.807       .  S
C163        C168   1.397       .  A
C163        C172   1.400       .  A
S164        H180   1.405       .  S
S166        H177   1.407       .  S
C168        C169   1.394       .  A
C168        S173   1.811       .  S
C169        C170   1.429       .  A
C169        H174   1.070       .  S
C170        C171   1.436       .  A
C171        C172   1.414       .  A
C171        S175   1.807       .  S
C172        H176   1.082       .  S
S173        H178   1.407       .  S
S175        H179   1.406       .  S
C181        C182   1.403       .  A
C181        C186   1.402       .  A
C181        H191   1.084       .  S
C182        C187   1.482       .  S
C182        C183   1.409       .  A
C183        C184   1.401       .  A
C183        S188   1.803   1_545  S
C184        C185   1.408       .  A
C184        H189   1.084       .  S
C185        C186   1.417       .  A
C186        S190   1.802       .  S
C187        C192   1.399       .  A
C187        C196   1.398       .  A
S188        H204   1.406       .  S
S190        H201   1.407       .  S
C192        C193   1.396   1_545  A
C192        S197   1.811       .  S
C193        C194   1.424       .  A
C193        H198   1.071       .  S
C194        C195   1.437   1_565  A
C195        C196   1.410       .  A
C195        S199   1.811       .  S
C196        H200   1.082       .  S
S197        H202   1.406   1_545  S
S199        H203   1.406       .  S
C205        C206   1.396       .  A
C205        C210   1.408       .  A
C205        H215   1.082       .  S
C206        C211   1.478       .  S
C206        C207   1.399       .  A
C207        C208   1.396   1_455  A
C207        S212   1.811       .  S
C208        C209   1.426       .  A
C208        H213   1.072       .  S
C209        C210   1.436   1_655  A
C210        S214   1.810       .  S
C211        C216   1.404       .  A
C211        C220   1.403       .  A
S212        H720   1.407   1_455  S
S214        H225   1.406       .  S
C216        C709   1.401       .  A
C216        S221   1.806   1_455  S
C217        C218   1.409   1_556  A
C217        C708   1.404       .  A
C217        H222   1.082       .  S
C218        C711   1.414   1_554  A
C219        C220   1.401       .  A
C219        C710   1.417       .  A
C219        S223   1.802       .  S
C220        H224   1.084       .  S
S221        H718   1.407       .  S
S223        H719   1.408       .  S
H226        S713   1.407       .  S
H227        S715   1.407   1_556  S
H228        S704   1.406       .  S
C229        C230   1.396       .  A
C229        C234   1.408       .  A
C229        H239   1.083       .  S
C230        C235   1.484       .  S
C230        C231   1.399       .  A
C231        C232   1.400       .  A
C231        S236   1.809       .  S
C232        C233   1.425       .  A
C232        H237   1.074   1_455  S
C233        C234   1.438       .  A
C234        S238   1.810       .  S
C235        C240   1.405       .  A
C235        C244   1.402       .  A
S236        H252   1.406       .  S
S238        H249   1.407       .  S
C240        C241   1.406       .  A
C240        S245   1.805   1_455  S
C241        C242   1.410       .  A
C241        H246   1.082       .  S
C242        C243   1.418       .  A
C243        C244   1.405       .  A
C243        S247   1.808       .  S
C244        H248   1.083       .  S
S245        H250   1.407       .  S
S247        H251   1.407       .  S
C253        C254   1.390       .  A
C253        C258   1.393       .  A
C253        H263   1.083       .  S
C254        C259   1.481       .  S
C254        C255   1.409       .  A
C255        C256   1.406       .  A
C255        S260   1.803       .  S
C256        C257   1.418       .  A
C256        H261   1.080       .  S
C257        C258   1.438       .  A
C258        S262   1.815       .  S
C259        C264   1.409       .  A
C259        C268   1.403       .  A
S260        H276   1.405       .  S
S262        H273   1.406       .  S
C264        C265   1.404       .  A
C264        S269   1.807       .  S
C265        C266   1.406       .  A
C265        H270   1.082       .  S
C266        C267   1.415       .  A
C267        C268   1.399       .  A
C267        S271   1.803       .  S
C268        H272   1.084       .  S
S269        H274   1.406       .  S
S271        H275   1.407       .  S
C277        C278   1.404       .  A
C277        C282   1.399       .  A
C277        H287   1.084       .  S
C278        C283   1.481       .  S
C278        C279   1.413       .  A
C279        C280   1.402       .  A
C279        S284   1.805       .  S
C280        C281   1.405       .  A
C280        H285   1.084       .  S
C281        C282   1.412       .  A
C282        S286   1.803       .  S
C283        C288   1.405   1_565  A
C283        C292   1.390       .  A
S284        H300   1.405       .  S
S286        H297   1.407       .  S
C288        C289   1.409       .  A
C288        S293   1.804       .  S
C289        C290   1.418   1_545  A
C289        H294   1.078       .  S
C290        C291   1.440       .  A
C291        C292   1.393       .  A
C291        S295   1.813   1_655  S
C292        H296   1.083       .  S
S293        H298   1.407       .  S
S295        H299   1.407   1_455  S
C301        C302   1.391       .  A
C301        C306   1.404       .  A
C301        H311   1.082       .  S
C302        C307   1.480       .  S
C302        C303   1.401       .  A
C303        C304   1.397       .  A
C303        S308   1.804       .  S
C304        C305   1.425       .  A
C304        H309   1.083       .  S
C305        C306   1.450       .  A
C306        S310   1.818       .  S
C307        C312   1.409       .  A
C307        C316   1.402       .  A
S308        H324   1.405       .  S
S310        H321   1.406       .  S
C312        C805   1.400       .  A
C312        S809   1.808       .  S
C313        C314   1.406       .  A
C313        C804   1.404       .  A
C313        H318   1.083       .  S
C314        C807   1.416       .  A
C315        C316   1.403       .  A
C315        C806   1.418       .  A
C315        S319   1.801   1_554  S
C316        H320   1.084   1_565  S
S317        C804   1.808       .  S
S317        H322   1.407       .  S
S319        H323   1.407       .  S
C325        C326   1.390       .  A
C325        C330   1.394       .  A
C325        H335   1.084       .  S
C326        C331   1.480       .  S
C326        C327   1.410       .  A
C327        C328   1.407   1_655  A
C327        S332   1.805   1_655  S
C328        C329   1.416   1_455  A
C328        H333   1.080       .  S
C329        C330   1.439       .  A
C330        S334   1.811       .  S
C331        C336   1.409       .  A
C331        C340   1.402       .  A
S332        H348   1.403       .  S
S334        H345   1.408       .  S
C336        C337   1.403       .  A
C336        S341   1.807       .  S
C337        C830   1.404       .  A
C337        H342   1.083       .  S
C338        C339   1.416       .  A
C338        C829   1.404   1_554  A
C339        C832   1.400       .  A
C339        S343   1.802       .  S
C340        C831   1.402       .  A
C340        H836   1.084       .  S
S341        H346   1.407       .  S
S343        H347   1.407       .  S
H344        C832   1.084       .  S
C349        C350   1.402       .  A
C349        C354   1.399       .  A
C349        H359   1.084       .  S
C350        C355   1.479       .  S
C350        C351   1.414       .  A
C351        C352   1.401       .  A
C351        S356   1.805       .  S
C352        C353   1.404       .  A
C352        H357   1.084       .  S
C353        C354   1.414       .  A
C354        S358   1.803       .  S
C355        C360   1.404   1_655  A
C355        C364   1.390       .  A
S356        H372   1.402       .  S
S358        H369   1.407       .  S
C360        C361   1.409       .  A
C360        S365   1.805       .  S
C361        C362   1.419   1_455  A
C361        H366   1.078       .  S
C362        C363   1.438       .  A
C363        C364   1.395       .  A
C363        S367   1.815       .  S
C364        H368   1.083       .  S
S365        H370   1.407       .  S
S367        H371   1.406       .  S
C373        C374   1.403       .  A
C373        C378   1.406       .  A
C373        H383   1.083       .  S
C374        C379   1.484       .  S
C374        C375   1.408       .  A
C375        C376   1.402       .  A
C375        S380   1.803       .  S
C376        C377   1.411       .  A
C376        H381   1.083       .  S
C377        C378   1.419       .  A
C378        S382   1.809       .  S
C379        C384   1.397       .  A
C379        C388   1.398       .  A
S380        H396   1.405       .  S
S382        H393   1.407       .  S
C384        C385   1.395       .  A
C384        S389   1.810       .  S
C385        C386   1.426       .  A
C385        H390   1.071       .  S
C386        C387   1.438       .  A
C387        C388   1.413       .  A
C387        S391   1.810       .  S
C388        H392   1.082       .  S
S389        H394   1.407       .  S
S391        H395   1.406       .  S
C397        C398   1.402       .  A
C397        C402   1.411       .  A
C397        H407   1.082       .  S
C398        C403   1.476       .  S
C398        C399   1.401       .  A
C399        C400   1.384       .  A
C399        S404   1.806       .  S
C400        C401   1.424       .  A
C400        H405   1.083       .  S
C401        C493   1.567       .  S
C401        C402   1.431       .  A
C402        S406   1.809       .  S
C403        C408   1.407       .  A
C403        C412   1.403       .  A
S404        H420   1.406       .  S
S406        H417   1.406       .  S
C408        C409   1.402       .  A
C408        S413   1.806       .  S
C409        C410   1.406       .  A
C409        H414   1.083       .  S
C410        C411   1.412       .  A
C411        C412   1.396       .  A
C411        S415   1.803       .  S
C412        H416   1.084       .  S
S413        H418   1.407       .  S
S415        H419   1.407       .  S
C421        C422   1.388       .  A
C421        C426   1.395       .  A
C421        H431   1.084       .  S
C422        C427   1.479       .  S
C422        C423   1.406       .  A
C423        C424   1.406       .  A
C423        S428   1.803       .  S
C424        C425   1.419       .  A
C424        H429   1.076       .  S
C425        C493   1.591       .  S
C425        C426   1.448       .  A
C426        S430   1.822       .  S
C427        C432   1.409       .  A
C427        C436   1.402       .  A
S428        H444   1.405       .  S
S430        H441   1.407       .  S
C432        C433   1.403       .  A
C432        S437   1.807       .  S
C433        C434   1.404       .  A
C433        H438   1.083       .  S
C434        C435   1.415       .  A
C435        C436   1.401       .  A
C435        S439   1.803       .  S
C436        H440   1.084       .  S
S437        H442   1.407       .  S
S439        H443   1.407       .  S
C445        C446   1.399       .  A
C445        C450   1.414       .  A
C445        H455   1.084       .  S
C446        C451   1.488       .  S
C446        C447   1.397       .  A
C447        C448   1.389       .  A
C447        S452   1.810       .  S
C448        C449   1.432       .  A
C448        H453   1.069   1_554  S
C449        C450   1.447       .  A
C450        S454   1.812       .  S
C451        C456   1.413       .  A
C451        C460   1.401       .  A
S452        H468   1.406       .  S
S454        H465   1.390       .  S
C456        C457   1.398       .  A
C456        S461   1.806       .  S
C457        C458   1.402       .  A
C457        H462   1.082       .  S
C458        C459   1.422       .  A
C459        C460   1.409       .  A
C459        S463   1.808       .  S
C460        H464   1.083       .  S
S461        H466   1.406       .  S
S463        H467   1.407       .  S
C469        C470   1.399       .  A
C469        C474   1.409       .  A
C469        H479   1.084       .  S
C470        C475   1.490       .  S
C470        C471   1.402       .  A
C471        C472   1.394       .  A
C471        S476   1.807       .  S
C472        C473   1.424       .  A
C472        H969   1.064   1_554  S
C473        C474   1.438       .  A
C474        S478   1.803       .  S
C475        C480   1.415       .  A
C475        C484   1.403       .  A
S476        H492   1.406       .  S
H477        C964   1.061       .  S
S478        H489   1.396       .  S
C480        C481   1.402       .  A
C480        S485   1.808       .  S
C481        C482   1.402       .  A
C481        H486   1.083       .  S
C482        C483   1.416       .  A
C483        C484   1.407       .  A
C483        S487   1.807       .  S
C484        H488   1.083       .  S
S485        H490   1.406       .  S
S487        H491   1.407       .  S
C493        C941   1.607       .  S
C493        C965   1.587       .  S
In494       O496   2.278       .  S
In494       O497   2.279       .  S
In494       O505   2.252       .  S
In494       O499   2.247       .  S
In494       O501   2.252       .  S
In494       O502   2.266       .  S
In494       O503   2.256       .  S
In494       O506   2.252       .  S
C495        O501   1.260       .  A
C495        O503   1.261       .  A
C495        C869   1.492       .  S
O496        C504   1.260       .  A
O497        C504   1.259       .  A
C498        O505   1.262       .  A
C498        O499   1.259       .  A
C498        C974   1.484       .  S
C500        O502   1.262       .  A
C500        O506   1.259       .  A
C500        C580   1.472       .  S
C504        C552   1.482       .  S
In507       O509   2.254       .  S
In507       O510   2.290       .  S
In507       O518   2.259       .  S
In507       O512   2.250       .  S
In507       O514   2.251       .  S
In507       O515   2.280       .  S
In507       O516   2.253       .  S
In507       O519   2.259       .  S
C508        O514   1.260       .  A
C508        O516   1.259       .  A
C508        C830   1.479       .  S
O509        C517   1.258       .  A
O510        C517   1.263       .  A
C511        O518   1.262       .  A
C511        O512   1.259       .  A
C511        C845   1.480       .  S
C513        O515   1.263       .  A
C513        O519   1.259       .  A
C517        C543   1.479       .  S
In520       O522   2.255       .  S
In520       O523   2.285       .  S
In520       O531   2.256       .  S
In520       O525   2.256       .  S
In520       O527   2.265       .  S
In520       O528   2.273       .  S
In520       O529   2.243       .  S
In520       O532   2.261       .  S
C521        O527   1.259       .  A
C521        O529   1.259       .  A
C521        C806   1.484   1_556  S
O522        C530   1.257       .  A
O523        C530   1.262       .  A
C524        O531   1.262       .  A
C524        O525   1.260       .  A
C524        C773   1.483       .  S
C526        O528   1.260       .  A
C526        O532   1.261       .  A
C530        C567   1.477       .  S
In533       O535   2.254       .  S
In533       O536   2.288       .  S
In533       O544   2.261       .  S
In533       O538   2.252       .  S
In533       O540   2.262       .  S
In533       O541   2.284       .  S
In533       O542   2.251       .  S
In533       O545   2.250       .  S
C534        O540   1.258       .  A
C534        O542   1.260       .  A
C534        C758   1.479       .  S
O535        C543   1.259       .  A
O536        C543   1.262       .  A
C537        O544   1.261       .  A
C537        O538   1.257       .  A
C537        C950   1.487       .  S
C539        O541   1.262       .  A
C539        O545   1.258       .  A
C539        C571   1.475       .  S
In546       O548   2.254       .  S
In546       O549   2.285       .  S
In546       O557   2.259       .  S
In546       O551   2.228       .  S
In546       O553   2.250       .  S
In546       O554   2.276       .  S
In546       O555   2.256       .  S
In546       O558   2.266       .  S
C547        O553   1.260       .  A
C547        O555   1.263       .  A
C547        C734   1.487       .  S
O548        C556   1.258       .  A
O549        C556   1.262       .  A
C550        O557   1.263       .  A
C550        O551   1.259       .  A
C550        C710   1.486       .  S
C552        O554   1.263       .  A
C552        O558   1.260       .  A
C559        C686   1.587   1_655  S
C559        C725   1.587       .  S
C559        C782   1.578       .  S
C559        C854   1.574   1_545  S
C560        C701   1.584       .  S
C560        C749   1.572       .  S
C560        C821   1.573       .  S
C560        C878   1.586   1_655  S
In561       O563   2.250       .  S
In561       O564   2.282       .  S
In561       O572   2.268       .  S
In561       O566   2.234       .  S
In561       O568   2.245       .  S
In561       O569   2.282       .  S
In561       O570   2.241       .  S
In561       O573   2.259       .  S
C562        O568   1.259       .  A
C562        O570   1.263       .  A
C562        C902   1.477       .  S
O563        C571   1.258       .  A
O564        C571   1.262       .  A
C565        O572   1.264       .  A
C565        O566   1.258       .  A
C565        C653   1.487       .  S
C567        O569   1.260       .  A
C567        O573   1.259       .  A
In574       O576   2.259       .  S
In574       O577   2.273       .  S
In574       O585   2.249       .  S
In574       O579   2.241       .  S
In574       O581   2.252       .  S
In574       O582   2.264       .  S
In574       O583   2.241       .  S
In574       O586   2.253       .  S
C575        O581   1.258       .  A
C575        O583   1.261       .  A
C575        C638   1.474       .  S
O576        C584   1.258       .  A
O577        C584   1.261       .  A
C578        O585   1.262       .  A
C578        O579   1.257       .  A
C578        C926   1.475       .  S
C580        O582   1.262       .  A
C580        O586   1.261       .  A
C584        C594   1.475       .  S
C587        C605   1.564       .  S
C587        C629   1.577       .  S
C587        C662   1.589   1_545  S
C587        C797   1.581       .  S
In588       O590   2.246       .  S
In588       O591   2.289       .  S
In588       O599   2.253       .  S
In588       O593   2.257       .  S
In588       O595   2.253       .  S
In588       O596   2.267       .  S
In588       O597   2.255       .  S
In588       O600   2.262       .  S
C589        O595   1.260       .  A
C589        O597   1.261       .  A
C589        C677   1.488       .  S
O590        C598   1.260       .  A
O591        C598   1.263       .  A
C592        O599   1.259       .  A
C592        O593   1.262       .  A
C592        C614   1.481       .  S
C594        O596   1.260       .  A
C594        O600   1.261       .  A
C601        C602   1.391       .  A
C601        C606   1.394       .  A
C601        H611   1.084       .  S
C602        C607   1.480       .  S
C602        C603   1.408   1_545  A
C603        C604   1.407       .  A
C603        S608   1.803       .  S
C604        C605   1.418   1_565  A
C604        H609   1.079       .  S
C605        C606   1.438       .  A
C606        S610   1.813       .  S
C607        C612   1.410       .  A
C607        C616   1.402       .  A
S608        H624   1.405       .  S
S610        H621   1.407       .  S
C612        C613   1.404       .  A
C612        S617   1.806       .  S
C613        H618   1.083       .  S
C614        C615   1.412       .  A
C615        S619   1.805       .  S
C616        H620   1.083       .  S
S617        H622   1.407       .  S
S619        H623   1.407   1_545  S
C625        C626   1.391       .  A
C625        C630   1.394       .  A
C625        H635   1.083       .  S
C626        C631   1.478       .  S
C626        C627   1.407       .  A
C627        C628   1.404       .  A
C627        S632   1.804       .  S
C628        C629   1.420       .  A
C628        H633   1.078       .  S
C629        C630   1.438       .  A
C630        S634   1.814       .  S
C631        C636   1.410       .  A
C631        C640   1.402       .  A
S632        H648   1.405       .  S
S634        H645   1.406       .  S
C636        C637   1.405       .  A
C636        S641   1.807       .  S
C637        C638   1.404       .  A
C637        H642   1.083       .  S
C638        C639   1.412       .  A
C639        C640   1.396       .  A
C639        S643   1.803       .  S
C640        H644   1.084       .  S
S641        H646   1.407       .  S
S643        H647   1.407       .  S
C649        C650   1.403       .  A
C649        C654   1.406       .  A
C649        H659   1.083       .  S
C650        C655   1.480       .  S
C650        C651   1.408       .  A
C651        C652   1.399       .  A
C651        S656   1.805       .  S
C652        C653   1.408       .  A
C652        H657   1.084       .  S
C653        C654   1.415       .  A
C654        S658   1.807       .  S
C655        C660   1.395       .  A
C655        C664   1.397       .  A
S656        H672   1.405       .  S
S658        H669   1.407       .  S
C660        C661   1.394       .  A
C660        S665   1.812       .  S
C661        C662   1.429       .  A
C661        H666   1.072       .  S
C662        C663   1.438       .  A
C663        C664   1.411       .  A
C663        S667   1.807       .  S
C664        H668   1.082       .  S
S665        H670   1.406       .  S
S667        H671   1.406       .  S
C673        C674   1.402       .  A
C673        C678   1.400       .  A
C673        H683   1.084       .  S
C674        C679   1.482       .  S
C674        C675   1.409       .  A
C675        C676   1.402       .  A
C675        S680   1.803   1_545  S
C676        C677   1.408       .  A
C676        H681   1.084       .  S
C677        C678   1.417       .  A
C678        S682   1.802       .  S
C679        C684   1.397       .  A
C679        C688   1.397       .  A
S680        H696   1.404       .  S
S682        H693   1.407       .  S
C684        C685   1.396       .  A
C684        S689   1.809       .  S
C685        C686   1.426       .  A
C685        H690   1.072       .  S
C686        C687   1.438       .  A
C687        C688   1.410       .  A
C687        S691   1.811       .  S
C688        H692   1.082       .  S
S689        H694   1.407   1_545  S
S691        H695   1.406       .  S
C697        C698   1.399       .  A
C697        C702   1.411       .  A
C697        H707   1.082       .  S
C698        C703   1.485       .  S
C698        C699   1.400       .  A
C699        C700   1.393   1_455  A
C699        S704   1.806   1_556  S
C700        C701   1.425       .  A
C700        H705   1.074       .  S
C701        C702   1.436   1_655  A
C702        S706   1.809       .  S
C703        C708   1.405       .  A
C703        C712   1.404       .  A
S706        H717   1.406       .  S
C708        S713   1.805       .  S
C709        C710   1.409       .  A
C709        H714   1.082       .  S
C711        C712   1.404       .  A
C711        S715   1.808   1_556  S
C712        H716   1.082       .  S
C721        C722   1.399       .  A
C721        C726   1.409   1_455  A
C721        H731   1.083       .  S
C722        C727   1.488       .  S
C722        C723   1.402   1_455  A
C723        C724   1.400       .  A
C723        S728   1.810   1_655  S
C724        C725   1.426       .  A
C724        H729   1.073       .  S
C725        C726   1.436       .  A
C726        S730   1.810       .  S
C727        C732   1.410       .  A
C727        C736   1.403       .  A
S728        H744   1.407   1_455  S
S730        H741   1.406   1_655  S
C732        C733   1.407       .  A
C732        S737   1.806   1_455  S
C733        C734   1.409       .  A
C733        H738   1.082       .  S
C734        C735   1.415       .  A
C735        C736   1.400       .  A
C735        S739   1.802       .  S
C736        H740   1.084       .  S
S737        H742   1.407       .  S
S739        H743   1.408       .  S
C745        C746   1.390       .  A
C745        C750   1.391       .  A
C745        H755   1.083       .  S
C746        C751   1.483       .  S
C746        C747   1.410       .  A
C747        C748   1.409       .  A
C747        S752   1.803       .  S
C748        C749   1.418       .  A
C748        H753   1.080       .  S
C749        C750   1.439       .  A
C750        S754   1.816       .  S
C751        C756   1.411       .  A
C751        C760   1.403       .  A
S752        H768   1.405       .  S
S754        H765   1.406       .  S
C756        C757   1.408       .  A
C756        S761   1.806       .  S
C757        C758   1.405       .  A
C757        H762   1.083       .  S
C758        C759   1.413       .  A
C759        C760   1.398       .  A
C759        S763   1.804       .  S
C760        H764   1.084       .  S
S761        H766   1.407       .  S
S763        H767   1.407       .  S
C769        C770   1.404       .  A
C769        C774   1.403       .  A
C769        H779   1.084       .  S
C770        C775   1.484       .  S
C770        C771   1.414       .  A
C771        C772   1.402       .  A
C771        S776   1.806       .  S
C772        C773   1.404       .  A
C772        H777   1.084       .  S
C773        C774   1.414       .  A
C774        S778   1.803       .  S
C775        C780   1.405   1_565  A
C775        C784   1.390       .  A
S776        H792   1.401       .  S
S778        H789   1.407       .  S
C780        C781   1.410       .  A
C780        S785   1.804       .  S
C781        C782   1.419       .  A
C781        H786   1.078       .  S
C782        C783   1.440   1_545  A
C783        C784   1.397       .  A
C783        S787   1.815       .  S
C784        H788   1.083       .  S
S785        H790   1.407       .  S
S787        H791   1.406       .  S
C793        C794   1.392       .  A
C793        C798   1.403       .  A
C793        H803   1.084       .  S
C794        C799   1.484       .  S
C794        C795   1.402       .  A
C795        C796   1.399   1_565  A
C795        S800   1.803       .  S
C796        C797   1.424       .  A
C796        H801   1.083       .  S
C797        C798   1.447   1_545  A
C798        S802   1.814       .  S
C799        C804   1.411       .  A
C799        C808   1.401       .  A
S800        H816   1.406       .  S
S802        H813   1.408   1_565  S
C805        C806   1.405       .  A
C805        H810   1.083       .  S
C807        C808   1.400       .  A
C807        S811   1.802       .  S
C808        H812   1.084   1_565  S
S809        H814   1.406       .  S
S811        H815   1.407       .  S
C817        C818   1.390       .  A
C817        C822   1.393       .  A
C817        H827   1.084       .  S
C818        C823   1.476       .  S
C818        C819   1.407   1_655  A
C819        C820   1.404       .  A
C819        S824   1.803       .  S
C820        C821   1.418   1_455  A
C820        H825   1.079       .  S
C821        C822   1.439       .  A
C822        S826   1.814       .  S
C823        C828   1.408       .  A
C823        C832   1.401   1_556  A
S824        H840   1.404       .  S
S826        H837   1.407       .  S
C828        C829   1.401       .  A
C828        S833   1.807       .  S
C829        H834   1.083       .  S
C830        C831   1.415       .  A
C831        S835   1.803       .  S
S833        H838   1.407       .  S
S835        H839   1.407       .  S
C841        C842   1.402       .  A
C841        C846   1.406       .  A
C841        H851   1.083       .  S
C842        C847   1.480       .  S
C842        C843   1.412       .  A
C843        C844   1.399       .  A
C843        S848   1.804       .  S
C844        C845   1.403       .  A
C844        H849   1.084       .  S
C845        C846   1.415       .  A
C846        S850   1.806       .  S
C847        C852   1.404   1_655  A
C847        C856   1.390       .  A
S848        H864   1.405       .  S
S850        H861   1.407       .  S
C852        C853   1.409       .  A
C852        S857   1.803       .  S
C853        C854   1.419   1_455  A
C853        H858   1.078       .  S
C854        C855   1.438       .  A
C855        C856   1.395       .  A
C855        S859   1.813   1_565  S
C856        H860   1.083       .  S
S857        H862   1.407       .  S
S859        H863   1.407   1_545  S
C865        C866   1.401       .  A
C865        C870   1.403       .  A
C865        H875   1.083       .  S
C866        C871   1.481       .  S
C866        C867   1.409       .  A
C867        C868   1.402       .  A
C867        S872   1.804       .  S
C868        C869   1.411       .  A
C868        H873   1.084       .  S
C869        C870   1.418       .  A
C870        S874   1.808       .  S
C871        C876   1.397       .  A
C871        C880   1.398       .  A
S872        H888   1.405       .  S
S874        H885   1.407       .  S
C876        C877   1.394       .  A
C876        S881   1.811       .  S
C877        C878   1.426       .  A
C877        H882   1.073       .  S
C878        C879   1.437       .  A
C879        C880   1.411       .  A
C879        S883   1.809       .  S
C880        H884   1.083       .  S
S881        H886   1.407       .  S
S883        H887   1.407       .  S
C889        C890   1.401       .  A
C889        C894   1.412       .  A
C889        H899   1.083       .  S
C890        C895   1.478       .  S
C890        C891   1.401       .  A
C891        C892   1.385       .  A
C891        S896   1.806       .  S
C892        C893   1.425       .  A
C892        H897   1.083       .  S
C893        C894   1.432       .  A
C894        S898   1.807       .  S
C895        C900   1.407       .  A
C895        C904   1.403       .  A
S896        H912   1.406       .  S
S898        H909   1.407       .  S
C900        C901   1.406       .  A
C900        S905   1.805       .  S
C901        C902   1.408       .  A
C901        H906   1.083       .  S
C902        C903   1.411       .  A
C903        C904   1.395       .  A
C903        S907   1.803       .  S
C904        H908   1.084       .  S
S905        H910   1.407       .  S
S907        H911   1.408       .  S
C913        C914   1.389       .  A
C913        C918   1.393       .  A
C913        H923   1.084       .  S
C914        C919   1.475       .  S
C914        C915   1.404       .  A
C915        C916   1.404       .  A
C915        S920   1.802       .  S
C916        C917   1.420       .  A
C916        H921   1.077       .  S
C917        C918   1.445       .  A
C918        S922   1.822       .  S
C919        C924   1.409       .  A
C919        C928   1.400       .  A
S920        H936   1.404       .  S
S922        H933   1.407       .  S
C924        C925   1.400       .  A
C924        S929   1.808       .  S
C925        C926   1.402       .  A
C925        H930   1.083       .  S
C926        C927   1.416       .  A
C927        C928   1.400       .  A
C927        S931   1.802       .  S
C928        H932   1.084       .  S
S929        H934   1.406       .  S
S931        H935   1.407       .  S
C937        C938   1.399       .  A
C937        C942   1.415       .  A
C937        H947   1.084       .  S
C938        C943   1.487       .  S
C938        C939   1.395       .  A
C939        C940   1.391       .  A
C939        S944   1.816       .  S
C940        C941   1.435       .  A
C940        H945   1.068       .  S
C941        C942   1.447       .  A
C942        S946   1.811       .  S
C943        C948   1.409       .  A
C943        C952   1.403       .  A
S944        H960   1.407       .  S
S946        H957   1.390       .  S
C948        C949   1.403       .  A
C948        S953   1.805       .  S
C949        C950   1.405       .  A
C949        H954   1.083       .  S
C950        C951   1.417       .  A
C951        C952   1.406       .  A
C951        S955   1.808       .  S
C952        H956   1.083       .  S
S953        H958   1.407       .  S
S955        H959   1.407       .  S
C961        C962   1.399       .  A
C961        C966   1.409       .  A
C961        H971   1.083       .  S
C962        C967   1.485       .  S
C962        C963   1.400       .  A
C963        C964   1.393       .  A
C963        S968   1.807       .  S
C964        C965   1.423       .  A
C965        C966   1.439       .  A
C966        S970   1.805       .  S
C967        C972   1.413       .  A
C967        C976   1.401       .  A
S968        H984   1.406       .  S
S970        H981   1.398       .  S
C972        C973   1.400       .  A
C972        S977   1.806       .  S
C973        C974   1.402       .  A
C973        H978   1.083       .  S
C974        C975   1.417       .  A
C975        C976   1.407       .  A
C975        S979   1.807       .  S
C976        H980   1.083       .  S
S977        H982   1.407       .  S
S979        H983   1.407       .  S
