geometry optimzed in LAMMPS
_audit_creation_date              2020-11-30 
_audit_creation_method            'lammps2cif' 
_symmetry_space_group_name_H-M    'P1' 
_symmetry_Int_Tables_number       1 
_symmetry_cell_setting            triclinic 
loop_ 
_symmetry_equiv_pos_as_xyz 
  x,y,z 
_cell_length_a                    36.62834121 
_cell_length_b                    36.413387650373664 
_cell_length_c                    50.41526401581233 
_cell_angle_alpha                 93.33715310402161 
_cell_angle_beta                  90.82277562256263 
_cell_angle_gamma                 120.85946848849422 
loop_ 
_atom_site_label 
_atom_site_type_symbol 
_atom_site_fract_x 
_atom_site_fract_y 
_atom_site_fract_z 
_atom_site_charge 
C1          C  0.00167838  0.00406933  0.77574302     0.45500
H2          H  0.00251334  0.00641320  0.79786373    -0.03500
C3          C  0.50107537  0.50055232  0.72323931     0.45600
H4          H  0.50027522  0.49857279  0.70111542    -0.03500
C5          C  0.04117117  0.00551475  0.76461176    -0.17200
C6          C  0.46497761  0.46474946  0.76238871    -0.17000
C7          C  0.00000429  0.04088674  0.76335781    -0.17300
C8          C  0.04030457  0.50449195  0.73524004    -0.17300
C9          C  0.46361334  0.46147871  0.73500160    -0.16900
C10         C  0.49674358  0.03906170  0.73597254    -0.17200
O11         O  0.34311376  0.22812847  0.95675787    -0.80800
O12         O  0.33438080  0.09088401  0.01006754    -0.65500
O13         O  0.33517011  0.15664474  0.98277377    -1.12100
C14         C  0.23331535  0.15398183  0.03971303     1.06000
O15         O  0.31617195  0.08665738  0.05155923    -0.78700
O16         O  0.24643656  0.06620762  0.01933667    -0.66300
Ni17       Ni  0.37098912  0.19467532  0.95754277     1.34900
C18         C  0.23606438  0.07199624  0.99643689     0.84800
O19         O  0.41232971  0.15793145  0.99901499    -0.79300
O20         O  0.40147557  0.16452227  0.95614361    -0.89600
C21         C  0.32424424  0.07071226  0.03117068     0.84300
O22         O  0.41624030  0.23820249  0.98117808    -0.67800
O23         O  0.23679087  0.12477064  0.05012112    -0.87000
C24         C  0.42023451  0.24283378  0.00639384     0.85200
C25         C  0.42355843  0.16215518  0.97511323     1.06700
H26         H  0.32618911  0.17710382  0.04319838     0.38600
O27         O  0.31496520  0.15252412  0.03040431    -1.09700
O28         O  0.24988438  0.10910284  0.98828711    -0.66400
Ni29       Ni  0.29443135  0.16657763  0.00049204     1.26300
O30         O  0.39370569  0.21500179  0.02114257    -0.66600
O31         O  0.25497303  0.17483337  0.02054980    -0.78900
C32         C  0.30419569  0.21781650  0.95836962     0.84600
O33         O  0.27793151  0.18562317  0.97041950    -0.66100
Ni34       Ni  0.27690102  0.10610165  0.04959073     1.27400
Ni35       Ni  0.36284329  0.15353496  0.01467075     1.26100
H36         H  0.32031990  0.12846768  0.97346327     0.39100
C37         C  0.29891639  0.29112336  0.91232887     0.80300
N38         N  0.27087114  0.29985811  0.92409124    -0.78000
C39         C  0.25143030  0.28105371  0.94630527     0.82700
N40         N  0.26079081  0.25303755  0.95722445    -0.78000
C41         C  0.29009108  0.24491131  0.94594794     0.82800
N42         N  0.30912945  0.26444662  0.92374267    -0.79700
O43         O  0.08713041  0.31394913  0.04790500    -0.80800
O44         O  0.19083211  0.27002741  0.97061202    -0.65500
O45         O  0.15542689  0.31281236  0.02916329    -1.12100
C46         C  0.16867766  0.41735815  0.97078827     1.06000
O47         O  0.23679837  0.33560761  0.95886948    -0.78700
O48         O  0.24595290  0.41106184  0.98125032    -0.66300
Ni49       Ni  0.10983588  0.27727907  0.04998305     1.34900
C50         C  0.24677150  0.41666789  0.00637342     0.84800
O51         O  0.17602996  0.25008040  0.02113163    -0.79300
O52         O  0.13149972  0.23983330  0.05415764    -0.89600
C53         C  0.22454681  0.29586100  0.95937454     0.84300
O54         O  0.07064482  0.23978702  0.02144493    -0.67800
O55         O  0.17658365  0.39659747  0.95277284    -0.87000
C56         C  0.07621191  0.23017168  0.99781826     0.85200
C57         C  0.15812403  0.23287399  0.04226428     1.06700
H58         H  0.13665876  0.31465929  0.97074159     0.38600
O59         O  0.16339032  0.32985525  0.98108979    -1.09700
O60         O  0.21621852  0.39204199  0.02028369    -0.66400
Ni61       Ni  0.15611436  0.35868452  0.01186277     1.26300
O62         O  0.11293342  0.24547812  0.98830867    -0.66600
O63         O  0.16026558  0.40608067  0.99443257    -0.78900
C64         C  0.07258743  0.31914862  0.02637445     0.84600
O65         O  0.09433115  0.32753274  0.00566498    -0.66100
Ni66       Ni  0.20489646  0.36475241  0.95692748     1.27400
Ni67       Ni  0.17046111  0.28928981  0.00010707     1.26100
H68         H  0.17978070  0.32570992  0.04167091     0.39100
C69         C  0.16223050  0.15940868  0.08816416     0.80300
N70         N  0.18725814  0.14798753  0.07510904    -0.78000
C71         C  0.20369233  0.16453747  0.05181910     0.82700
N72         N  0.19461184  0.19245763  0.04121800    -0.78000
C73         C  0.16866132  0.20336284  0.05386423     0.82800
N74         N  0.15281004  0.18713331  0.07749636    -0.79700
C75         C  0.17347579  0.00442240  0.93572030     0.80300
N76         N  0.19640454  0.03916996  0.95332519    -0.78000
C77         C  0.20784524  0.03408766  0.97806311     0.82700
N78         N  0.19618293  0.99401381  0.98485352    -0.78000
C79         C  0.17399165  0.45871254  0.96483808     0.82800
N80         N  0.16303454  0.46425472  0.94027350    -0.79700
C81         C  0.48843998  0.32435552  0.05899430     0.80300
N82         N  0.45382045  0.29658904  0.04322360    -0.78000
C83         C  0.45827362  0.28012352  0.01949652     0.82700
N84         N  0.49803694  0.29006733  0.01210286    -0.78000
C85         C  0.03134309  0.31690860  0.02796615     0.82800
N86         N  0.02567073  0.33294338  0.05141126    -0.79700
C87         C  0.01089920  0.17437904  0.93603185     0.80300
N88         N  0.47265897  0.16260276  0.94356131    -0.78000
C89         C  0.46544240  0.16851702  0.96917464     0.82700
N90         N  0.99804035  0.18796648  0.98758597    -0.78000
C91         C  0.03846633  0.20193753  0.97980589     0.82800
N92         N  0.04453352  0.19489076  0.95393141    -0.79700
C93         C  0.31939256  0.48248208  0.06251061     0.80300
N94         N  0.32904343  0.02132360  0.05857221    -0.78000
C95         C  0.31985847  0.02849077  0.03386234     0.82700
N96         N  0.29599030  0.49453731  0.01365575    -0.78000
C97         C  0.28307157  0.45403943  0.02068144     0.82800
N98         N  0.29429809  0.44850039  0.04518718    -0.79700
O99         O  0.30834072  0.12075214  0.55202679    -0.80800
O100        O  0.42801854  0.24893111  0.49576350    -0.65500
O101        O  0.37370802  0.18382939  0.52516922    -1.12100
C102        C  0.26249745  0.18483167  0.47586713     1.06000
O103        O  0.40722608  0.25608712  0.45585508    -0.78700
O104        O  0.34418498  0.26476032  0.47941226    -0.66300
Ni105      Ni  0.36633508  0.13828473  0.54589139     1.34900
C106        C  0.34913110  0.27131392  0.50451185     0.84800
O107        O  0.44855415  0.19049401  0.50513244    -0.79300
O108        O  0.42460838  0.15442337  0.54193827    -0.89600
C109        C  0.43618656  0.26748574  0.47421927     0.84300
O110        O  0.34687415  0.09146550  0.51864013    -0.67800
O111        O  0.28532697  0.18960774  0.45590884    -0.87000
C112        C  0.35187254  0.09230727  0.49377901     0.85200
C113        C  0.45420418  0.17619833  0.52636789     1.06700
H114        H  0.32765055  0.15597972  0.47117849     0.38600
O115        O  0.34587180  0.18413855  0.48004659    -1.09700
O116        O  0.35578637  0.24721555  0.51861570    -0.66400
Ni117      Ni  0.32387275  0.18525668  0.51371219     1.26300
O118        O  0.37130688  0.12709918  0.48250361    -0.66600
O119        O  0.27510125  0.18678173  0.49998678    -0.78900
C120        C  0.28000860  0.10680425  0.53326740     0.84600
O121        O  0.28875591  0.12367457  0.51118291    -0.66100
Ni122      Ni  0.34612415  0.22210111  0.45601255     1.27400
Ni123      Ni  0.39794525  0.18762885  0.49127793     1.26100
H124        H  0.39216087  0.20998991  0.53604916     0.39100
C125        C  0.33404389  0.33557537  0.55787292     0.80300
N126        N  0.31133940  0.34946780  0.54454536    -0.78000
C127        C  0.30362262  0.34106721  0.51776852     0.82700
N128        N  0.31847565  0.31794717  0.50447041    -0.78000
C129        C  0.34131161  0.30391748  0.51767551     0.82800
N130        N  0.34858636  0.31268152  0.54433979    -0.79700
O131        O  0.25846809  0.40400837  0.45448741    -0.80800
O132        O  0.12359302  0.28661110  0.51073186    -0.65500
O133        O  0.18567558  0.34274967  0.47886523    -1.12100
C134        C  0.17573842  0.45446590  0.52355446     1.06000
O135        O  0.11982121  0.30995564  0.55121239    -0.78700
O136        O  0.09237749  0.34697479  0.51659136    -0.66300
Ni137      Ni  0.22519844  0.34239892  0.45520587     1.34900
C138        C  0.09434227  0.35161317  0.49176136     0.84800
O139        O  0.18716152  0.27255381  0.49940995    -0.79300
O140        O  0.19351531  0.28123081  0.45534006    -0.89600
C141        C  0.10630297  0.27979596  0.53304659     0.84300
O142        O  0.26665013  0.34230143  0.47917268    -0.67800
O143        O  0.15359742  0.42586739  0.53942473    -0.87000
C144        C  0.27152850  0.34798002  0.50432317     0.85200
C145        C  0.18719381  0.25902742  0.47537841     1.06700
H146        H  0.20887568  0.39240946  0.53456883     0.38600
O147        O  0.18333465  0.37333125  0.52368137    -1.09700
O148        O  0.12934230  0.36955465  0.48039507    -0.66400
Ni149      Ni  0.18898578  0.39589369  0.48956415     1.26300
O150        O  0.24641606  0.35466876  0.51814926    -0.66600
O151        O  0.19149300  0.44761276  0.50278144    -0.78900
C152        C  0.26857735  0.43392714  0.47273487     0.84600
O153        O  0.24963828  0.42594591  0.49439230    -0.66100
Ni154      Ni  0.13745413  0.36768756  0.54413519     1.27400
Ni155      Ni  0.18501107  0.32234373  0.51284760     1.26100
H156        H  0.15809642  0.32398379  0.46992972     0.39100
C157        C  0.18207944  0.54237956  0.56621082     0.80300
N158        N  0.16708377  0.50326435  0.55342446    -0.78000
C159        C  0.18574988  0.49805992  0.53166557     0.82700
N160        N  0.22021373  0.53276701  0.52253065    -0.78000
C161        C  0.23733177  0.07230234  0.53850214     0.82800
N162        N  0.21987108  0.07717058  0.56101071    -0.79700
C163        C  0.53906214  0.18971424  0.57227988     0.80300
N164        N  0.50107830  0.17298472  0.55882897    -0.78000
C165        C  0.49734317  0.18793350  0.53559253     0.82700
N166        N  0.53258558  0.22091236  0.52567072    -0.78000
C167        C  0.07088483  0.23778597  0.53924189     0.82800
N168        N  0.07337679  0.22290302  0.56303294    -0.79700
C169        C  0.52415083  0.33437084  0.43267857     0.80300
N170        N  0.05971161  0.34757289  0.44883632    -0.78000
C171        C  0.05523996  0.33652279  0.47457592     0.82700
N172        N  0.51522239  0.31172000  0.48404038    -0.78000
C173        C  0.48013061  0.29848823  0.46745358     0.82800
N174        N  0.48527070  0.30980118  0.44207277    -0.79700
C175        C  0.16786845  0.16227804  0.43734516     0.80300
N176        N  0.16132875  0.19328742  0.44796218    -0.78000
C177        C  0.18427884  0.21790567  0.47002980     0.82700
N178        N  0.21489011  0.21213301  0.48103370    -0.78000
C179        C  0.22174780  0.18123371  0.47028102     0.82800
N180        N  0.19857555  0.15692002  0.44825520    -0.79700
C181        C  0.33008048  0.52253825  0.43050545     0.80300
N182        N  0.34371046  0.05624235  0.44995289    -0.78000
C183        C  0.33482354  0.05225029  0.47618238     0.82700
N184        N  0.31119043  0.51393054  0.48290149    -0.78000
C185        C  0.29760582  0.47837438  0.46567278     0.82800
N186        N  0.30703580  0.48335097  0.43976895    -0.79700
C187        C  0.46450275  0.46399230  0.27851676     0.45500
H188        H  0.46249877  0.46370637  0.30049838    -0.03500
C189        C  0.47121422  0.46608106  0.22763236     0.45600
H190        H  0.47469496  0.46651320  0.20575990    -0.03500
C191        C  0.00646932  0.00329757  0.26933268    -0.17200
C192        C  0.46509946  0.42498895  0.26558128    -0.17000
C193        C  0.42822870  0.46612339  0.26391943    -0.17300
C194        C  0.00853939  0.00353180  0.24241709    -0.17300
C195        C  0.46809623  0.42626087  0.23865454    -0.16900
C196        C  0.43146650  0.46638735  0.23670613    -0.17200
C197        C  0.31153969  0.49124501  0.35692463    -0.02000
C198        C  0.35344053  0.51172116  0.34834190     0.06600
C199        C  0.38688814  0.04240263  0.36861720    -0.07900
C200        C  0.37893763  0.04830714  0.39522306     0.04100
C201        C  0.33828698  0.52522198  0.40176836    -0.15200
C202        C  0.30432859  0.49778264  0.38350140    -0.08500
C203        C  0.36395545  0.49621455  0.32335041     0.05000
C204        C  0.38021751  0.52275559  0.30223896    -0.09600
C205        C  0.39654183  0.51111760  0.28034102     0.00000
C206        C  0.39828429  0.47313947  0.28007860    -0.00100
C207        C  0.37905549  0.44549789  0.30028442    -0.13200
C208        C  0.36160052  0.45627098  0.32157560     0.00300
C209        C  0.41232237  0.53949149  0.25915337     0.39600
C210        C  0.34366874  0.92856880  0.34447610     0.36300
C211        C  0.27586278  0.46166627  0.33909709     0.36000
C212        C  0.41457489  0.07566685  0.41366798     0.36700
N213        N  0.42395329  0.56238633  0.24216081    -0.44000
N214        N  0.32843611  0.90484183  0.36082969    -0.44500
N215        N  0.44299551  0.09754147  0.42856441    -0.41900
N216        N  0.24738271  0.43804877  0.32471038    -0.43300
H217        H  0.27224615  0.47981347  0.39033628     0.12900
H218        H  0.41941880  0.05806738  0.36247307     0.09400
H219        H  0.38125201  0.55310769  0.30324984     0.10400
H220        H  0.38066377  0.91795521  0.30293406     0.16200
C221        C  0.08368692  0.10486656  0.38234594    -0.02000
C222        C  0.10757752  0.10187606  0.36153083     0.06600
C223        C  0.15135248  0.11897996  0.36563402    -0.07900
C224        C  0.17160787  0.13825341  0.39036280     0.04100
C225        C  0.14762539  0.14065522  0.41139372    -0.15200
C226        C  0.10397885  0.12448158  0.40707669    -0.08500
C227        C  0.08729351  0.08001797  0.33549432     0.05000
C228        C  0.06782204  0.09663499  0.32012416    -0.09600
C229        C  0.04421491  0.07414026  0.29670867     0.00000
C230        C  0.04002312  0.03438212  0.28865712    -0.00100
C231        C  0.06237911  0.01970732  0.30296864    -0.13200
C232        C  0.08602053  0.04212990  0.32628117     0.00300
C233        C  0.02447056  0.09265978  0.28200747     0.39600
C234        C  0.10652548  0.02430038  0.34112737     0.36300
C235        C  0.03831871  0.08722645  0.37903618     0.36000
C236        C  0.21720370  0.15694919  0.39307376     0.36700
N237        N  0.50674742  0.60786335  0.27245940    -0.44000
N238        N  0.12315754  0.01013740  0.35293267    -0.44500
N239        N  0.25373819  0.17191345  0.39502602    -0.41900
N240        N  0.00198047  0.07319484  0.37649280    -0.43300
H241        H  0.08568909  0.12679492  0.42314187     0.12900
H242        H  0.16968122  0.11724866  0.34939989     0.09400
H243        H  0.07005694  0.12658906  0.32691337     0.10400
H244        H  0.05975286  0.98960599  0.29664178     0.16200
C245        C  0.49562321  0.31731554  0.35901721    -0.02000
C246        C  0.51235398  0.35967127  0.35180418     0.06600
C247        C  0.04182468  0.39446844  0.37032537    -0.07900
C248        C  0.04869257  0.38645837  0.39634524     0.04100
C249        C  0.52659998  0.34411635  0.40434787    -0.15200
C250        C  0.50244808  0.30991217  0.38511177    -0.08500
C251        C  0.49925558  0.36898487  0.32599625     0.05000
C252        C  0.45611091  0.35521506  0.32075433    -0.09600
C253        C  0.44324783  0.36900866  0.29898064     0.00000
C254        C  0.47373930  0.39734466  0.28212317    -0.00100
C255        C  0.01789894  0.40762352  0.28520946    -0.13200
C256        C  0.03145726  0.39468945  0.30712605     0.00300
C257        C  0.39851230  0.35282683  0.29395441     0.39600
C258        C  0.07582173  0.40781786  0.31040968     0.36300
C259        C  0.47085772  0.28096287  0.34006130     0.36000
C260        C  0.07431806  0.42234873  0.41541660     0.36700
N261        N  0.36240673  0.33870734  0.28980019    -0.44000
N262        N  0.11139464  0.41836839  0.31311850    -0.44500
N263        N  0.09497025  0.45101877  0.43075738    -0.41900
N264        N  0.45120072  0.25184867  0.32481571    -0.43300
H265        H  0.48759351  0.27718011  0.39077838     0.12900
H266        H  0.05534871  0.42730783  0.36516715     0.09400
H267        H  0.43261447  0.33505702  0.33434132     0.10400
H268        H  0.04098965  0.42769661  0.27144439     0.16200
C269        C  0.32535424  0.99777712  0.14070005    -0.02000
C270        C  0.33711748  0.46592703  0.14453493     0.06600
C271        C  0.33549575  0.43655186  0.12461338    -0.07900
C272        C  0.32958445  0.44105153  0.09775656     0.04100
C273        C  0.32517816  0.47561099  0.09056379    -0.15200
C274        C  0.32003475  0.00250100  0.11386317    -0.08500
C275        C  0.35824394  0.46927031  0.17047606     0.05000
C276        C  0.33660014  0.44088797  0.19009452    -0.09600
C277        C  0.35884605  0.44105304  0.21320396     0.00000
C278        C  0.40339524  0.46950861  0.21637582    -0.00100
C279        C  0.42039469  0.99593820  0.19773847    -0.13200
C280        C  0.39764215  0.99559338  0.17552338     0.00300
C281        C  0.33576576  0.41002267  0.23219925     0.39600
C282        C  0.42109897  0.02160248  0.15424787     0.36300
C283        C  0.32803542  0.02943746  0.16053693     0.36000
C284        C  0.33129374  0.41162523  0.07805623     0.36700
N285        N  0.31688880  0.38514360  0.24739820    -0.44000
N286        N  0.43984730  0.04216150  0.13715714    -0.44500
N287        N  0.33273950  0.38799737  0.06233971    -0.41900
N288        N  0.33015044  0.05470759  0.17649853    -0.43300
H289        H  0.31698325  0.02928531  0.10857497     0.12900
H290        H  0.34194398  0.41190428  0.12994423     0.09400
H291        H  0.30279257  0.41785733  0.18695582     0.10400
H292        H  0.45440648  0.01559547  0.19792216     0.16200
C293        C  0.01303121  0.39022976  0.18462762    -0.02000
C294        C  0.47395388  0.36336367  0.16892710     0.06600
C295        C  0.43471633  0.34679616  0.18076482    -0.07900
C296        C  0.43259101  0.36227683  0.20637125     0.04100
C297        C  0.47010795  0.39479934  0.22017589    -0.15200
C298        C  0.01068676  0.40603387  0.21001160    -0.08500
C299        C  0.47483062  0.35167547  0.14056565     0.05000
C300        C  0.99215695  0.32379130  0.13415580    -0.09600
C301        C  0.49789001  0.31821841  0.10732530     0.00000
C302        C  0.48328330  0.33335518  0.08696336    -0.00100
C303        C  0.46331791  0.35648891  0.09356665    -0.13200
C304        C  0.45931373  0.36611329  0.12028648     0.00300
C305        C  0.01088319  0.28522724  0.10123109     0.39600
C306        C  0.44076895  0.39213396  0.12647088     0.36300
C307        C  0.05433465  0.40706151  0.17360517     0.36000
C308        C  0.39141114  0.34665394  0.21725351     0.36700
N309        N  0.02334100  0.26228800  0.09622727    -0.44000
N310        N  0.42601869  0.41305991  0.13146747    -0.44500
N311        N  0.35819174  0.33340701  0.22583802    -0.41900
N312        N  0.08751538  0.42076833  0.16486163    -0.43300
H313        H  0.03949666  0.43087319  0.22061782     0.12900
H314        H  0.40566900  0.32346003  0.16948014     0.09400
H315        H  0.00265663  0.31124594  0.14961574     0.10400
H316        H  0.45184106  0.36783670  0.07791884     0.16200
C317        C  0.10936179  0.07764494  0.13864615    -0.02000
C318        C  0.11322083  0.10358014  0.16171284     0.06600
C319        C  0.13457304  0.14831063  0.16065391    -0.07900
C320        C  0.15030433  0.16722761  0.13682365     0.04100
C321        C  0.14556442  0.14121050  0.11366648    -0.15200
C322        C  0.12601362  0.09668396  0.11500500    -0.08500
C323        C  0.09196037  0.08437557  0.18631647     0.05000
C324        C  0.10275182  0.05801528  0.19950777    -0.09600
C325        C  0.07875696  0.03467360  0.22038403     0.00000
C326        C  0.04324655  0.03728327  0.22791482    -0.00100
C327        C  0.03606123  0.06761969  0.21706651    -0.13200
C328        C  0.05932558  0.09042848  0.19600771     0.00300
C329        C  0.09162875  0.00912899  0.23405352     0.39600
C330        C  0.04671073  0.11706464  0.18332892     0.36300
C331        C  0.08661658  0.03137936  0.13831679     0.36000
C332        C  0.17207353  0.21336039  0.13683535     0.36700
N333        N  0.10790920  0.49657243  0.24644740    -0.44000
N334        N  0.03663033  0.13836186  0.17308966    -0.44500
N335        N  0.18955346  0.25035697  0.13692860    -0.41900
N336        N  0.06831708  0.99431608  0.13796050    -0.43300
H337        H  0.12266252  0.07658528  0.09728591     0.12900
H338        H  0.13809987  0.16840291  0.17840722     0.09400
H339        H  0.12906185  0.05471011  0.19294784     0.10400
H340        H  0.01049184  0.07171672  0.22402807     0.16200
C341        C  0.38399724  0.34628303  0.86268712    -0.02000
C342        C  0.36266952  0.35582248  0.84324138     0.06600
C343        C  0.31986850  0.34310918  0.84619576    -0.07900
C344        C  0.29839943  0.32184398  0.86833283     0.04100
C345        C  0.31969907  0.31216906  0.88793359    -0.15200
C346        C  0.36232950  0.32407366  0.88453034    -0.08500
C347        C  0.38540507  0.38194100  0.82084028     0.05000
C348        C  0.40103134  0.36554915  0.80104767    -0.09600
C349        C  0.42538037  0.39093694  0.78083889     0.00000
C350        C  0.43404182  0.43338478  0.78019720    -0.00100
C351        C  0.41795601  0.44926068  0.79991236    -0.13200
C352        C  0.39363560  0.42408179  0.81991804     0.00300
C353        C  0.44374404  0.37380679  0.76248996     0.39600
C354        C  0.37946353  0.44308510  0.84011720     0.36300
C355        C  0.42884087  0.36146477  0.86153561     0.36000
C356        C  0.25445181  0.31011480  0.87014902     0.36700
N357        N  0.45850434  0.35981336  0.74796540    -0.44000
N358        N  0.36812412  0.45836074  0.85627211    -0.44500
N359        N  0.21930189  0.30098552  0.87156540    -0.41900
N360        N  0.46489488  0.37409611  0.86072447    -0.43300
H361        H  0.37934888  0.31754570  0.89952740     0.12900
H362        H  0.30342977  0.35062029  0.83135441     0.09400
H363        H  0.39522261  0.33329585  0.80187695     0.10400
H364        H  0.42572572  0.48217614  0.80028602     0.16200
C365        C  0.05111862  0.13561117  0.81255120    -0.02000
C366        C  0.01528400  0.12903110  0.82627444     0.06600
C367        C  0.47448393  0.10373847  0.81468668    -0.07900
C368        C  0.46784893  0.07773574  0.79145847     0.04100
C369        C  0.00442149  0.07725564  0.78027047    -0.15200
C370        C  0.04537272  0.10891493  0.78995295    -0.08500
C371        C  0.01936771  0.14562229  0.85421808     0.05000
C372        C  0.50402778  0.17339755  0.86141467    -0.09600
C373        C  0.50278905  0.18446952  0.88821945     0.00000
C374        C  0.01699679  0.16852862  0.90790420    -0.00100
C375        C  0.03744185  0.14618022  0.90085845    -0.13200
C376        C  0.03785852  0.13367888  0.87426831     0.00300
C377        C  0.48437298  0.21041722  0.89505136     0.39600
C378        C  0.05438558  0.10578006  0.86834856     0.36300
C379        C  0.09384642  0.16752872  0.82232451     0.36000
C380        C  0.42500745  0.04927184  0.78053168     0.36700
N381        N  0.46961746  0.23116053  0.90060756    -0.44000
N382        N  0.06764170  0.08347067  0.86356947    -0.44500
N383        N  0.39639412  0.52725985  0.77283613    -0.41900
N384        N  0.12795648  0.19311090  0.83033050    -0.43300
H385        H  0.07277046  0.11095829  0.78084927     0.12900
H386        H  0.44730234  0.10052600  0.82497576     0.09400
H387        H  0.49068027  0.18371757  0.84623987     0.10400
H388        H  0.05062420  0.13605847  0.91627000     0.16200
C389        C  0.10270427  0.49625330  0.87624771    -0.02000
C390        C  0.13131243  0.00505573  0.85636214     0.06600
C391        C  0.17342212  0.01546950  0.86157100    -0.07900
C392        C  0.18842151  0.01721155  0.88764367     0.04100
C393        C  0.16118667  0.00899928  0.90882803    -0.15200
C394        C  0.11793157  0.49700332  0.90197938    -0.08500
C395        C  0.11563141  0.00265532  0.82867100     0.05000
C396        C  0.13138728  0.04055767  0.81567639    -0.09600
C397        C  0.11051097  0.04136218  0.79239363     0.00000
C398        C  0.07269157  0.00404422  0.78245351    -0.00100
C399        C  0.05926019  0.46649515  0.79173149    -0.13200
C400        C  0.07972920  0.46538913  0.81496434     0.00300
C401        C  0.12797630  0.08100888  0.77969411     0.39600
C402        C  0.06372640  0.42485880  0.82654713     0.36300
C403        C  0.05903817  0.48550041  0.87240626     0.36000
C404        C  0.23129825  0.02608223  0.89220107     0.36700
N405        N  0.14322826  0.11305945  0.76964179    -0.44000
N406        N  0.05089827  0.39232735  0.83575765    -0.44500
N407        N  0.26561788  0.03311395  0.89597404    -0.41900
N408        N  0.02403235  0.47676120  0.86930343    -0.43300
H409        H  0.09653918  0.48798433  0.91821153     0.12900
H410        H  0.19420592  0.02133758  0.84522522     0.09400
H411        H  0.15857426  0.07000561  0.82451895     0.10400
H412        H  0.03044901  0.43774374  0.78382822     0.16200
C413        C  0.42724245  0.38689742  0.67384133    -0.02000
C414        C  0.38587110  0.37932389  0.66906172     0.06600
C415        C  0.36645723  0.38997937  0.68948857    -0.07900
C416        C  0.38939245  0.41193151  0.71346879     0.04100
C417        C  0.43276645  0.42472311  0.71657391    -0.15200
C418        C  0.45026435  0.40964666  0.69734889    -0.08500
C419        C  0.36535537  0.36550721  0.64185584     0.05000
C420        C  0.35364108  0.32461857  0.63055478    -0.09600
C421        C  0.34192623  0.31355671  0.60340699     0.00000
C422        C  0.34153647  0.34377160  0.58711749    -0.00100
C423        C  0.35060272  0.38360659  0.59884308    -0.13200
C424        C  0.36295044  0.39485966  0.62586892     0.00300
C425        C  0.33051209  0.27104334  0.59286168     0.39600
C426        C  0.37613944  0.43794218  0.63608750     0.36300
C427        C  0.44814410  0.37495637  0.65401341     0.36000
C428        C  0.36855222  0.42347488  0.73347130     0.36700
N429        N  0.32141028  0.23703791  0.58432882    -0.44000
N430        N  0.38681764  0.47273569  0.64374541    -0.44500
N431        N  0.35120687  0.43235783  0.74927958    -0.41900
N432        N  0.46480354  0.36518523  0.63818620    -0.43300
H433        H  0.48330761  0.41858259  0.69980056     0.12900
H434        H  0.33418259  0.38315078  0.68612439     0.09400
H435        H  0.35534311  0.30194422  0.64278475     0.10400
H436        H  0.35033543  0.40697264  0.58656313     0.16200
C437        C  0.04920818  0.13696224  0.69749123    -0.02000
C438        C  0.51816974  0.12424876  0.67574994     0.06600
C439        C  0.47788658  0.08733231  0.67718325    -0.07900
C440        C  0.46862826  0.06174175  0.69862560     0.04100
C441        C  0.50016845  0.07232059  0.71875965    -0.15200
C442        C  0.04065096  0.11100836  0.71881010    -0.08500
C443        C  0.52826281  0.14704493  0.65094836     0.05000
C444        C  0.55849987  0.14625577  0.63438786    -0.09600
C445        C  0.56438299  0.16197880  0.60902616     0.00000
C446        C  0.53926014  0.17820099  0.59989153    -0.00100
C447        C  0.51044221  0.18062814  0.61694854    -0.13200
C448        C  0.50496696  0.16550433  0.64229496     0.00300
C449        C  0.59426416  0.15867687  0.59219290     0.39600
C450        C  0.97157940  0.16450617  0.65888744     0.36300
C451        C  0.08968804  0.17653546  0.69761673     0.36000
C452        C  0.42620284  0.02539170  0.69991274     0.36700
N453        N  0.61823520  0.15598919  0.57872034    -0.44000
N454        N  0.94647989  0.16560071  0.67205175    -0.44500
N455        N  0.39161442  0.99715256  0.70092492    -0.41900
N456        N  0.12211228  0.20831943  0.69771269    -0.43300
H457        H  0.06498962  0.12049964  0.73447705     0.12900
H458        H  0.45402604  0.07781134  0.66111098     0.09400
H459        H  0.57616460  0.13164467  0.64082909     0.10400
H460        H  0.49146552  0.19370838  0.61019952     0.16200
C461        C  0.12089475  0.06527210  0.68924925    -0.02000
C462        C  0.12067551  0.53038596  0.67154707     0.06600
C463        C  0.10432245  0.49068521  0.68265259    -0.07900
C464        C  0.08235003  0.48286499  0.70616078     0.04100
C465        C  0.07641297  0.51494081  0.71841944    -0.15200
C466        C  0.09861913  0.05652502  0.71242808    -0.08500
C467        C  0.13600284  0.53518534  0.64430675     0.05000
C468        C  0.17896628  0.56414883  0.64036208    -0.09600
C469        C  0.19430954  0.56970952  0.61477428     0.00000
C470        C  0.16635911  0.54495195  0.59265717    -0.00100
C471        C  0.12586341  0.02412220  0.60015955    -0.13200
C472        C  0.11028597  0.02015888  0.62562657     0.00300
C473        C  0.23910059  0.59966725  0.61218034     0.39600
C474        C  0.06479021  0.99819237  0.62844376     0.36300
C475        C  0.13729299  0.10683679  0.67899760     0.36000
C476        C  0.06498568  0.44156097  0.71683103     0.36700
N477        N  0.27496381  0.62397994  0.61024616    -0.44000
N478        N  0.02842512  0.98096976  0.63090259    -0.44500
N479        N  0.55201606  0.40792146  0.72639169    -0.41900
N480        N  0.15038279  0.14002414  0.67063349    -0.43300
H481        H  0.09429418  0.08099171  0.72228809     0.12900
H482        H  0.10693159  0.46526519  0.67226217     0.09400
H483        H  0.20058609  0.58221293  0.65738928     0.10400
H484        H  0.10368331  0.00911909  0.58299517     0.16200
C485        C  0.00328537  0.50642461  0.77430000     0.45500
H486        H  0.00539717  0.50968219  0.79643004    -0.03500
C487        C  0.49882897  0.00053039  0.72409015     0.45600
H488        H  0.49899085  0.99912178  0.70199363    -0.03500
C489        C  0.04195294  0.50713295  0.76238377    -0.17200
C490        C  0.46173452  0.96315245  0.76253637    -0.17000
C491        C  0.00113278  0.54278859  0.76176516    -0.17300
C492        C  0.04096159  0.00397682  0.73749984    -0.17300
C493        C  0.46149566  0.96054228  0.73519432    -0.16900
C494        C  0.50074362  0.54002261  0.73516077    -0.17200
O495        O  0.34186465  0.73005893  0.95737095    -0.80800
O496        O  0.33422412  0.59138166  0.00766650    -0.65500
O497        O  0.33438582  0.65759719  0.98129952    -1.12100
C498        C  0.23077133  0.65132819  0.03864723     1.06000
O499        O  0.31591982  0.58592246  0.04921303    -0.78700
O500        O  0.24579146  0.56526768  0.01742914    -0.66300
Ni501      Ni  0.37018681  0.69712477  0.95665921     1.34900
C502        C  0.23561550  0.57122088  0.99451969     0.84800
O503        O  0.41171354  0.65918366  0.99657610    -0.79300
O504        O  0.40113583  0.66750652  0.95395883    -0.89600
C505        C  0.32449784  0.57082627  0.02862185     0.84300
O506        O  0.41561113  0.73989817  0.98060734    -0.67800
O507        O  0.23521258  0.62266950  0.04906049    -0.87000
C508        C  0.41932956  0.74349728  0.00582909     0.85200
C509        C  0.42300207  0.66416615  0.97263751     1.06700
H510        H  0.32474167  0.67611859  0.04188887     0.38600
O511        O  0.31378068  0.65176810  0.02893455    -1.09700
O512        O  0.24921316  0.60839194  0.98653690    -0.66400
Ni513      Ni  0.29280486  0.66594925  0.99931055     1.26300
O514        O  0.39232255  0.71515784  0.02008176    -0.66600
O515        O  0.25227630  0.67252162  0.01950332    -0.78900
C516        C  0.30257613  0.71856562  0.95834547     0.84600
O517        O  0.27619436  0.68535750  0.96954376    -0.66100
Ni518      Ni  0.27606711  0.60475057  0.04787465     1.27400
Ni519      Ni  0.36208939  0.65387249  0.01285392     1.26100
H520        H  0.32003567  0.62974925  0.97157108     0.39100
C521        C  0.29699532  0.79137608  0.91245535     0.80300
N522        N  0.26950856  0.80076407  0.92438916    -0.78000
C523        C  0.25054825  0.78235275  0.94681273     0.82700
N524        N  0.25963322  0.75410758  0.95762645    -0.78000
C525        C  0.28834850  0.74546246  0.94608976     0.82800
N526        N  0.30705195  0.76460805  0.92377865    -0.79700
O527        O  0.08465930  0.81205865  0.04844033    -0.80800
O528        O  0.19038374  0.77107007  0.97120093    -0.65500
O529        O  0.15368748  0.81153585  0.03007181    -1.12100
C530        C  0.16819391  0.91795854  0.97296048     1.06000
O531        O  0.23650028  0.83704564  0.96016393    -0.78700
O532        O  0.24480181  0.91190013  0.98317521    -0.66300
Ni533      Ni  0.10710445  0.77493797  0.04987755     1.34900
C534        C  0.24562070  0.91632671  0.00836626     0.84800
O535        O  0.17482919  0.74927360  0.02120808    -0.79300
O536        O  0.12820241  0.73671690  0.05324150    -0.89600
C537        C  0.22406065  0.79720564  0.96013434     0.84300
O538        O  0.06901191  0.73928529  0.02053293    -0.67800
O539        O  0.17527150  0.89696329  0.95466514    -0.87000
C540        C  0.07568505  0.73009499  0.99710920     0.85200
C541        C  0.15543871  0.73039736  0.04155305     1.06700
H542        H  0.13597110  0.81526780  0.97192950     0.38600
O543        O  0.16266202  0.83022985  0.98232619    -1.09700
O544        O  0.21532409  0.89054763  0.02200045    -0.66400
Ni545      Ni  0.15536388  0.85835531  0.01338241     1.26300
O546        O  0.11276979  0.74546784  0.98828389    -0.66600
O547        O  0.16048481  0.90672834  0.99664717    -0.78900
C548        C  0.07147344  0.81920404  0.02704240     0.84600
O549        O  0.09386768  0.82817200  0.00665499    -0.66100
Ni550      Ni  0.20423766  0.86578584  0.95847612     1.27400
Ni551      Ni  0.16961478  0.78923149  0.00082496     1.26100
H552        H  0.17755835  0.82379261  0.04292960     0.39100
C553        C  0.15794453  0.65538674  0.08669485     0.80300
N554        N  0.18332500  0.64409502  0.07382154    -0.78000
C555        C  0.20019093  0.66096907  0.05059921     0.82700
N556        N  0.19126760  0.68910988  0.04005999    -0.78000
C557        C  0.16504421  0.69981393  0.05256720     0.82800
N558        N  0.14875484  0.68318018  0.07596053    -0.79700
C559        C  0.17337516  0.50391382  0.93363123     0.80300
N560        N  0.19620416  0.53856520  0.95131851    -0.78000
C561        C  0.20781853  0.53340825  0.97597295     0.82700
N562        N  0.19643827  0.49334930  0.98261516    -0.78000
C563        C  0.17358073  0.95932305  0.96713433     0.82800
N564        N  0.16288787  0.96481885  0.94251157    -0.79700
C565        C  0.48744250  0.82086728  0.06017691     0.80300
N566        N  0.45292071  0.79463477  0.04389151    -0.78000
C567        C  0.45746857  0.77988467  0.01956443     0.82700
N568        N  0.49724351  0.79007437  0.01200753    -0.78000
C569        C  0.03078880  0.81816681  0.02818929     0.82800
N570        N  0.02447863  0.83358488  0.05165578    -0.79700
C571        C  0.01321968  0.67553862  0.93441173     0.80300
N572        N  0.47284634  0.66552057  0.94088119    -0.78000
C573        C  0.46490542  0.67049533  0.96655414     0.82700
N574        N  0.99839411  0.68938798  0.98544418    -0.78000
C575        C  0.03890143  0.70240022  0.97850301     0.82800
N576        N  0.04602609  0.69516627  0.95291026    -0.79700
C577        C  0.31524010  0.98111276  0.06567792     0.80300
N578        N  0.33228063  0.52249026  0.05536501    -0.78000
C579        C  0.32145190  0.52914244  0.03096440     0.82700
N580        N  0.29510821  0.99420242  0.01615260    -0.78000
C581        C  0.28135960  0.95350996  0.02316180     0.82800
N582        N  0.29101642  0.94751304  0.04795282    -0.79700
O583        O  0.30518701  0.62094259  0.54944259    -0.80800
O584        O  0.42549988  0.75050741  0.49501170    -0.65500
O585        O  0.37119545  0.68459924  0.52347721    -1.12100
C586        C  0.26039696  0.68680505  0.47477996     1.06000
O587        O  0.40536533  0.75879278  0.45517970    -0.78700
O588        O  0.34206937  0.76669016  0.47873718    -0.66300
Ni589      Ni  0.36323935  0.63857793  0.54381602     1.34900
C590        C  0.34683604  0.77256221  0.50384670     0.84800
O591        O  0.44619246  0.69184647  0.50391964    -0.79300
O592        O  0.42138320  0.65472225  0.54030841    -0.89600
C593        C  0.43395164  0.76984243  0.47378109     0.84300
O594        O  0.34483729  0.59257083  0.51613711    -0.67800
O595        O  0.28323590  0.69225464  0.45470032    -0.87000
C596        C  0.35062085  0.59391177  0.49135600     0.85200
C597        C  0.45123674  0.67677393  0.52501709     1.06700
H598        H  0.32587841  0.65810988  0.46922921     0.38600
O599        O  0.34391526  0.68606097  0.47839896    -1.09700
O600        O  0.35356813  0.74821346  0.51763240    -0.66400
Ni601      Ni  0.32167526  0.68637145  0.51207866     1.26300
O602        O  0.36973413  0.62893763  0.48027996    -0.66600
O603        O  0.27310244  0.68827398  0.49874929    -0.78900
C604        C  0.27744393  0.60736048  0.53038868     0.84600
O605        O  0.28669449  0.62493801  0.50859988    -0.66100
Ni606      Ni  0.34419906  0.72470323  0.45491485     1.27400
Ni607      Ni  0.39588617  0.68932815  0.48975058     1.26100
H608        H  0.38950668  0.71048715  0.53462444     0.39100
C609        C  0.33130900  0.83546830  0.55776383     0.80300
N610        N  0.30769427  0.84870006  0.54481812    -0.78000
C611        C  0.29940765  0.84017037  0.51808287     0.82700
N612        N  0.31472383  0.81776148  0.50448028    -0.78000
C613        C  0.33844894  0.80443267  0.51733924     0.82800
N614        N  0.34617330  0.81313045  0.54396570    -0.79700
O615        O  0.25397277  0.90277769  0.45564467    -0.80800
O616        O  0.11911877  0.78635019  0.51073444    -0.65500
O617        O  0.18111969  0.84216433  0.47972073    -1.12100
C618        C  0.17370594  0.95445543  0.52596875     1.06000
O619        O  0.11417522  0.80824745  0.55138400    -0.78700
O620        O  0.08835906  0.84767559  0.51763104    -0.66300
Ni621      Ni  0.22009561  0.84122360  0.45594394     1.34900
C622        C  0.09057281  0.85276563  0.49284604     0.84800
O623        O  0.18192185  0.77119056  0.49975877    -0.79300
O624        O  0.18770504  0.77997192  0.45573738    -0.89600
C625        C  0.10142197  0.77875471  0.53282284     0.84300
O626        O  0.26128363  0.84047627  0.47982267    -0.67800
O627        O  0.15081851  0.92557750  0.54152563    -0.87000
C628        C  0.26662060  0.84636383  0.50496105     0.85200
C629        C  0.18173585  0.75771006  0.47568854     1.06700
H630        H  0.20449832  0.89079522  0.53581100     0.38600
O631        O  0.17898805  0.87214495  0.52478862    -1.09700
O632        O  0.12570116  0.87031416  0.48160495    -0.66400
Ni633      Ni  0.18524805  0.89554033  0.49094959     1.26300
O634        O  0.24156561  0.85278048  0.51903585    -0.66600
O635        O  0.18875636  0.94746430  0.50487698    -0.78900
C636        C  0.26474868  0.93245524  0.47417342     0.84600
O637        O  0.24582259  0.92450816  0.49584100    -0.66100
Ni638      Ni  0.13313764  0.86665216  0.54525272     1.27400
Ni639      Ni  0.18021900  0.82112578  0.51346706     1.26100
H640        H  0.15348335  0.82389632  0.47073966     0.39100
C641        C  0.18481552  0.04340208  0.57007052     0.80300
N642        N  0.16809518  0.00426627  0.55694021    -0.78000
C643        C  0.18571564  0.99850317  0.53479741     0.82700
N644        N  0.22079854  0.03266195  0.52565295    -0.78000
C645        C  0.23491620  0.57237750  0.53494887     0.82800
N646        N  0.21640006  0.57674696  0.55706369    -0.79700
C647        C  0.53488426  0.68814904  0.57112074     0.80300
N648        N  0.49713041  0.67184494  0.55742783    -0.78000
C649        C  0.49394064  0.68787123  0.53448724     0.82700
N650        N  0.52928875  0.72141147  0.52522636    -0.78000
C651        C  0.06634957  0.73639515  0.53809966     0.82800
N652        N  0.06836801  0.72025429  0.56142831    -0.79700
C653        C  0.52273944  0.83708551  0.43314579     0.80300
N654        N  0.05628480  0.84997182  0.44987361    -0.78000
C655        C  0.05160335  0.83861714  0.47560054     0.82700
N656        N  0.51274191  0.81401751  0.48439693    -0.78000
C657        C  0.47799912  0.80122246  0.46758885     0.82800
N658        N  0.48368721  0.81283467  0.44232973    -0.79700
C659        C  0.16327580  0.66090427  0.43796540     0.80300
N660        N  0.15609249  0.69148636  0.44860889    -0.78000
C661        C  0.17968924  0.71698342  0.47028826     0.82700
N662        N  0.21163915  0.71267408  0.48065509    -0.78000
C663        C  0.21916006  0.68233744  0.46974041     0.82800
N664        N  0.19522856  0.65700176  0.44828695    -0.79700
C665        C  0.32813504  0.02119777  0.43252915     0.80300
N666        N  0.34426245  0.55785503  0.44759644    -0.78000
C667        C  0.33504950  0.55398597  0.47381438     0.82700
N668        N  0.30973595  0.01219211  0.48501420    -0.78000
C669        C  0.29468847  0.97679099  0.46741455     0.82800
N670        N  0.30390145  0.98195899  0.44147036    -0.79700
C671        C  0.46399322  0.96376970  0.27921171     0.45500
H672        H  0.46304932  0.96381622  0.30124814    -0.03500
C673        C  0.46822902  0.96470494  0.22813780     0.45600
H674        H  0.47079708  0.96457994  0.20619612    -0.03500
C675        C  0.00658045  0.50345084  0.26934872    -0.17200
C676        C  0.46314486  0.92415967  0.26592796    -0.17000
C677        C  0.42749456  0.96643789  0.26546161    -0.17300
C678        C  0.01005184  0.50427947  0.24258606    -0.17300
C679        C  0.46495028  0.92482690  0.23894646    -0.16900
C680        C  0.42935156  0.96606997  0.23812273    -0.17200
C681        C  0.31142532  0.99328748  0.35847076    -0.02000
C682        C  0.35365410  0.01337904  0.35044747     0.06600
C683        C  0.38695094  0.54216808  0.36586750    -0.07900
C684        C  0.37968361  0.54923290  0.39245661     0.04100
C685        C  0.33711580  0.02450499  0.40392400    -0.15200
C686        C  0.30350416  0.99851977  0.38510567    -0.08500
C687        C  0.36460061  0.99801864  0.32556246     0.05000
C688        C  0.38121774  0.02454474  0.30447082    -0.09600
C689        C  0.39733599  0.01258449  0.28258211     0.00000
C690        C  0.39881162  0.97445799  0.28237549    -0.00100
C691        C  0.37982103  0.94713597  0.30279557    -0.13200
C692        C  0.36212687  0.95803017  0.32391989     0.00300
C693        C  0.41284499  0.04055057  0.26118283     0.39600
C694        C  0.34409936  0.42692549  0.34226347     0.36300
C695        C  0.27609349  0.96541443  0.33994602     0.36000
C696        C  0.41566778  0.57816268  0.41024953     0.36700
N697        N  0.42413417  0.06290773  0.24391039    -0.44000
N698        N  0.32980428  0.40312754  0.35866321    -0.44500
N699        N  0.44452956  0.60137378  0.42450635    -0.41900
N700        N  0.24788670  0.94325525  0.32498182    -0.43300
H701        H  0.27111927  0.98079624  0.39148357     0.12900
H702        H  0.41924499  0.55819145  0.35926952     0.09400
H703        H  0.38240576  0.05496888  0.30539481     0.10400
H704        H  0.38012919  0.41645734  0.30033804     0.16200
C705        C  0.07975966  0.59925214  0.38317479    -0.02000
C706        C  0.10496339  0.59956714  0.36221577     0.06600
C707        C  0.14909280  0.61998029  0.36612830    -0.07900
C708        C  0.16866371  0.63998419  0.39081484     0.04100
C709        C  0.14351971  0.63922765  0.41203318    -0.15200
C710        C  0.09931021  0.61931244  0.40798446    -0.08500
C711        C  0.08579421  0.57874669  0.33594933     0.05000
C712        C  0.06541686  0.59504029  0.32114363    -0.09600
C713        C  0.04206147  0.57290954  0.29765402     0.00000
C714        C  0.03940875  0.53418900  0.28895450    -0.00100
C715        C  0.06302011  0.52020120  0.30254713    -0.13200
C716        C  0.08611696  0.54201764  0.32607248     0.00300
C717        C  0.02057361  0.59027753  0.28356997     0.39600
C718        C  0.10742409  0.52456700  0.34050296     0.36300
C719        C  0.03395183  0.57807739  0.37970726     0.36000
C720        C  0.21464952  0.66297144  0.39327720     0.36700
N721        N  0.50939457  0.10862279  0.26970992    -0.44000
N722        N  0.12452305  0.51055258  0.35197898    -0.44500
N723        N  0.25148301  0.68149172  0.39506830    -0.41900
N724        N  0.99729189  0.56114933  0.37677570    -0.43300
H725        H  0.08015374  0.61919608  0.42422989     0.12900
H726        H  0.16823841  0.62066637  0.34971720     0.09400
H727        H  0.06644954  0.62416131  0.32854727     0.10400
H728        H  0.06177123  0.49107013  0.29552463     0.16200
C729        C  0.49143363  0.81747257  0.36007994    -0.02000
C730        C  0.51017406  0.85952105  0.35193453     0.06600
C731        C  0.03804072  0.89352719  0.36974547    -0.07900
C732        C  0.04618359  0.88688280  0.39584940     0.04100
C733        C  0.52535792  0.84561180  0.40462748    -0.15200
C734        C  0.49894585  0.81093660  0.38618827    -0.08500
C735        C  0.49694340  0.86845026  0.32608765     0.05000
C736        C  0.45376786  0.85480361  0.32092332    -0.09600
C737        C  0.44089311  0.86817931  0.29899032     0.00000
C738        C  0.47142844  0.89615958  0.28209022    -0.00100
C739        C  0.01367837  0.90515558  0.28525811    -0.13200
C740        C  0.02597040  0.89164349  0.30739808     0.00300
C741        C  0.39622572  0.85244580  0.29394095     0.39600
C742        C  0.06990114  0.90334936  0.31100368     0.36300
C743        C  0.46346466  0.78056957  0.34222280     0.36000
C744        C  0.07503880  0.92347976  0.41358567     0.36700
N745        N  0.36026262  0.83895333  0.28962170    -0.44000
N746        N  0.10510555  0.91271506  0.31399330    -0.44500
N747        N  0.09832364  0.95282843  0.42776898    -0.41900
N748        N  0.44100130  0.75102667  0.32791230    -0.43300
H749        H  0.48258139  0.77856974  0.39258638     0.12900
H750        H  0.05325985  0.92595168  0.36355349     0.09400
H751        H  0.43029662  0.83521031  0.33469432     0.10400
H752        H  0.03746988  0.92519771  0.27182644     0.16200
C753        C  0.33015080  0.49879034  0.13755714    -0.02000
C754        C  0.33077103  0.96404283  0.14786665     0.06600
C755        C  0.32728861  0.93347489  0.12817844    -0.07900
C756        C  0.32161714  0.93786852  0.10128509     0.04100
C757        C  0.31953550  0.97366480  0.09383140    -0.15200
C758        C  0.32441898  0.50349994  0.11076579    -0.08500
C759        C  0.35332866  0.96797703  0.17328531     0.05000
C760        C  0.33235299  0.94191559  0.19401430    -0.09600
C761        C  0.35569238  0.94239365  0.21664495     0.00000
C762        C  0.40058558  0.96920580  0.21833783    -0.00100
C763        C  0.42390634  0.49827784  0.19683484    -0.13200
C764        C  0.40208293  0.49876558  0.17434555     0.00300
C765        C  0.33312143  0.91295046  0.23652942     0.39600
C766        C  0.42610692  0.52803417  0.15454220     0.36300
C767        C  0.33129649  0.52947749  0.15754826     0.36000
C768        C  0.32116841  0.90687028  0.08185464     0.36700
N769        N  0.31457950  0.88916535  0.25234290    -0.44000
N770        N  0.44518441  0.55135188  0.13863512    -0.44500
N771        N  0.32074592  0.88189658  0.06636562    -0.41900
N772        N  0.33226094  0.55403627  0.17361029    -0.43300
H773        H  0.31982294  0.52942246  0.10564290     0.12900
H774        H  0.33244285  0.90804691  0.13368267     0.09400
H775        H  0.29815276  0.92020740  0.19205446     0.10400
H776        H  0.45781494  0.51926946  0.19823009     0.16200
C777        C  0.00724695  0.88558059  0.18475155    -0.02000
C778        C  0.47181991  0.85847917  0.17039231     0.06600
C779        C  0.43209674  0.84386478  0.18129219    -0.07900
C780        C  0.42919767  0.86131148  0.20604063     0.04100
C781        C  0.46654156  0.89305459  0.22038998    -0.15200
C782        C  0.00517143  0.90248174  0.20986930    -0.08500
C783        C  0.47338856  0.84689284  0.14200954     0.05000
C784        C  0.98882675  0.82214310  0.13382904    -0.09600
C785        C  0.49898095  0.81596906  0.10862703     0.00000
C786        C  0.48218163  0.82910043  0.08828180    -0.00100
C787        C  0.46010936  0.85000801  0.09497783    -0.13200
C788        C  0.45612046  0.85957244  0.12167121     0.00300
C789        C  0.01351495  0.78929608  0.10082262     0.39600
C790        C  0.43603804  0.88418841  0.12769057     0.36300
C791        C  0.04854706  0.90089695  0.17399450     0.36000
C792        C  0.38754340  0.84905274  0.21507846     0.36700
N793        N  0.02942337  0.76947331  0.09579109    -0.44000
N794        N  0.42009481  0.90403255  0.13255335    -0.44500
N795        N  0.35387082  0.83872919  0.22203666    -0.41900
N796        N  0.08159171  0.91322193  0.16530340    -0.43300
H797        H  0.03420877  0.92640952  0.22060982     0.12900
H798        H  0.40326194  0.82109460  0.16960782     0.09400
H799        H  0.00032969  0.81031813  0.14917587     0.10400
H800        H  0.44717009  0.86001234  0.07936402     0.16200
C801        C  0.10720743  0.57802342  0.13993708    -0.02000
C802        C  0.11111929  0.60567418  0.16205867     0.06600
C803        C  0.13116732  0.64991697  0.15938804    -0.07900
C804        C  0.14644223  0.66671465  0.13496422     0.04100
C805        C  0.14223043  0.63902370  0.11279012    -0.15200
C806        C  0.12329713  0.59493003  0.11567222    -0.08500
C807        C  0.09175241  0.58832274  0.18744653     0.05000
C808        C  0.10515366  0.56458088  0.20134891    -0.09600
C809        C  0.08147762  0.54015938  0.22194970     0.00000
C810        C  0.04421384  0.53978905  0.22882428    -0.00100
C811        C  0.03488098  0.56859167  0.21779250    -0.13200
C812        C  0.05731307  0.59172275  0.19657683     0.00300
C813        C  0.09570597  0.51555739  0.23545774     0.39600
C814        C  0.04149735  0.61485525  0.18277891     0.36300
C815        C  0.08478320  0.53202064  0.14130862     0.36000
C816        C  0.16744517  0.71256268  0.13336961     0.36700
N817        N  0.10292688  0.98956465  0.24523968    -0.44000
N818        N  0.02861196  0.63307594  0.17157491    -0.44500
N819        N  0.18436664  0.74929379  0.13200554    -0.41900
N820        N  0.06655175  0.49520740  0.14255420    -0.43300
H821        H  0.11993376  0.57350384  0.09869880     0.12900
H822        H  0.13439003  0.67126631  0.17636709     0.09400
H823        H  0.13268220  0.56324638  0.19509369     0.10400
H824        H  0.00766688  0.57026139  0.22425322     0.16200
C825        C  0.38124982  0.84591145  0.86251828    -0.02000
C826        C  0.35890566  0.85324730  0.84250626     0.06600
C827        C  0.31551456  0.83846760  0.84501768    -0.07900
C828        C  0.29454346  0.81765068  0.86738233     0.04100
C829        C  0.31722563  0.81149826  0.88786627    -0.15200
C830        C  0.36032750  0.82509757  0.88489117    -0.08500
C831        C  0.38103277  0.87900713  0.81988073     0.05000
C832        C  0.39901602  0.86375761  0.80103270    -0.09600
C833        C  0.42353408  0.88940945  0.78098443     0.00000
C834        C  0.43028344  0.93105496  0.77971702    -0.00100
C835        C  0.41145482  0.94560146  0.79826021    -0.13200
C836        C  0.38661794  0.91999953  0.81794749     0.00300
C837        C  0.44359836  0.87333876  0.76328808     0.39600
C838        C  0.36902910  0.93748643  0.83674751     0.36300
C839        C  0.42602679  0.86084452  0.86100959     0.36000
C840        C  0.24946206  0.80160565  0.86831498     0.36700
N841        N  0.45953162  0.86006823  0.74921979    -0.44000
N842        N  0.35484628  0.95154112  0.85170158    -0.44500
N843        N  0.21328420  0.78851055  0.86899491    -0.41900
N844        N  0.46187995  0.87269925  0.85976682    -0.43300
H845        H  0.37805544  0.82046783  0.90042638     0.12900
H846        H  0.29811289  0.84362217  0.82952945     0.09400
H847        H  0.39489835  0.83226354  0.80249548     0.10400
H848        H  0.41727238  0.97779586  0.79787460     0.16200
C849        C  0.05441079  0.63679204  0.81123906    -0.02000
C850        C  0.01890748  0.63183316  0.82464736     0.06600
C851        C  0.48143613  0.60645580  0.81392449    -0.07900
C852        C  0.47426193  0.57981477  0.79098461     0.04100
C853        C  0.00674562  0.57984140  0.77849667    -0.15200
C854        C  0.04799941  0.61022164  0.78844024    -0.08500
C855        C  0.02319085  0.64761371  0.85276083     0.05000
C856        C  0.50807414  0.67595444  0.85896736    -0.09600
C857        C  0.50414984  0.68583707  0.88554633     0.00000
C858        C  0.02082247  0.66991306  0.90653398    -0.00100
C859        C  0.03460768  0.64148225  0.89948828    -0.13200
C860        C  0.03540657  0.62979280  0.87275626     0.00300
C861        C  0.48256553  0.70900479  0.89146525     0.39600
C862        C  0.04615067  0.59740037  0.86632314     0.36300
C863        C  0.09734006  0.66661310  0.82166580     0.36000
C864        C  0.43109570  0.55058045  0.78086525     0.36700
N865        N  0.46534213  0.72759382  0.89632736    -0.44000
N866        N  0.05478725  0.57155042  0.86093263    -0.44500
N867        N  0.39061619  0.02667497  0.77172999    -0.41900
N868        N  0.13166019  0.69063897  0.83008987    -0.43300
H869        H  0.07499495  0.61107000  0.77947837     0.12900
H870        H  0.45443233  0.60325527  0.82443487     0.09400
H871        H  0.49375174  0.68449333  0.84333656     0.10400
H872        H  0.04246174  0.62663975  0.91486170     0.16200
C873        C  0.10448732  0.99792021  0.87776219    -0.02000
C874        C  0.13001328  0.50622908  0.85482784     0.06600
C875        C  0.17292679  0.51935356  0.86003705    -0.07900
C876        C  0.18825395  0.52070739  0.88594704     0.04100
C877        C  0.16036530  0.50872228  0.90697616    -0.15200
C878        C  0.11953273  0.99970046  0.90372263    -0.08500
C879        C  0.11418138  0.50380784  0.82710698     0.05000
C880        C  0.13141750  0.54130353  0.81346563    -0.09600
C881        C  0.11151536  0.54201642  0.78968591     0.00000
C882        C  0.07343312  0.50502832  0.77979711    -0.00100
C883        C  0.05977781  0.96525223  0.79383636    -0.13200
C884        C  0.08154258  0.96410349  0.81646806     0.00300
C885        C  0.13002768  0.58121387  0.77639820     0.39600
C886        C  0.06752902  0.92342257  0.82741965     0.36300
C887        C  0.06141437  0.98879079  0.87354101     0.36000
C888        C  0.23230165  0.53329955  0.89043974     0.36700
N889        N  0.14581089  0.61277122  0.76579388    -0.44000
N890        N  0.05662118  0.89079388  0.83606101    -0.44500
N891        N  0.26763064  0.54347983  0.89410186    -0.41900
N892        N  0.02691138  0.98139302  0.87004677    -0.43300
H893        H  0.09848804  0.99302267  0.92001503     0.12900
H894        H  0.19420603  0.52771830  0.84377785     0.09400
H895        H  0.15900067  0.57057445  0.82213088     0.10400
H896        H  0.03129579  0.93622072  0.78585251     0.16200
C897        C  0.42746661  0.88811661  0.67309837    -0.02000
C898        C  0.38561933  0.87917461  0.66847433     0.06600
C899        C  0.36535827  0.88827702  0.68903626    -0.07900
C900        C  0.38781315  0.91005996  0.71314485     0.04100
C901        C  0.43150709  0.92400803  0.71631605    -0.15200
C902        C  0.44996304  0.91043863  0.69683598    -0.08500
C903        C  0.36539690  0.86596550  0.64126077     0.05000
C904        C  0.35130383  0.82435606  0.63023942    -0.09600
C905        C  0.33876351  0.81320117  0.60319461     0.00000
C906        C  0.33979146  0.84402161  0.58685557    -0.00100
C907        C  0.35183903  0.88490371  0.59825602    -0.13200
C908        C  0.36529079  0.89629770  0.62510227     0.00300
C909        C  0.32517881  0.77004813  0.59275115     0.39600
C910        C  0.38213407  0.94033505  0.63492338     0.36300
C911        C  0.44921467  0.87808078  0.65286441     0.36000
C912        C  0.36605916  0.92044959  0.73309998     0.36700
N913        N  0.31441062  0.73553627  0.58432480    -0.44000
N914        N  0.39599086  0.97593430  0.64221933    -0.44500
N915        N  0.34783147  0.92824702  0.74883226    -0.41900
N916        N  0.46654050  0.86992027  0.63665081    -0.43300
H917        H  0.48327628  0.92035598  0.69925812     0.12900
H918        H  0.33278149  0.88054575  0.68565226     0.09400
H919        H  0.35167080  0.80111135  0.64258261     0.10400
H920        H  0.35310482  0.90881872  0.58581002     0.16200
C921        C  0.04629374  0.63696774  0.69541264    -0.02000
C922        C  0.51848410  0.62377480  0.67467988     0.06600
C923        C  0.47873773  0.58654483  0.67672801    -0.07900
C924        C  0.47073158  0.56169435  0.69836572     0.04100
C925        C  0.50331465  0.57276346  0.71783865    -0.15200
C926        C  0.03878223  0.61129940  0.71674894    -0.08500
C927        C  0.52683706  0.64597636  0.64974418     0.05000
C928        C  0.55761524  0.64670128  0.63304626    -0.09600
C929        C  0.56182033  0.66136369  0.60747519     0.00000
C930        C  0.53489300  0.67555054  0.59842198    -0.00100
C931        C  0.50521335  0.67614897  0.61549614    -0.13200
C932        C  0.50099640  0.66157402  0.64092159     0.00300
C933        C  0.59160669  0.65859069  0.59027102     0.39600
C934        C  0.96429607  0.65830838  0.65559063     0.36300
C935        C  0.08576751  0.67756539  0.69558315     0.36000
C936        C  0.42821586  0.52613514  0.70068570     0.36700
N937        N  0.61528910  0.65605255  0.57643959    -0.44000
N938        N  0.93808391  0.65785331  0.66836212    -0.44500
N939        N  0.39332427  0.49894250  0.70235860    -0.41900
N940        N  0.11726528  0.71029586  0.69581555    -0.43300
H941        H  0.06352047  0.62129133  0.73224130     0.12900
H942        H  0.45409814  0.57638662  0.66107668     0.09400
H943        H  0.57696801  0.63391115  0.63953164     0.10400
H944        H  0.48470439  0.68748417  0.60874852     0.16200
C945        C  0.11861128  0.56380255  0.68549207    -0.02000
C946        C  0.12346448  0.03235688  0.67511966     0.06600
C947        C  0.10696688  0.99229355  0.68570360    -0.07900
C948        C  0.08430051  0.98360736  0.70893159     0.04100
C949        C  0.07799858  0.01526205  0.72144980    -0.15200
C950        C  0.09674089  0.55581009  0.70883129    -0.08500
C951        C  0.13902987  0.03781389  0.64802398     0.05000
C952        C  0.18283845  0.06165492  0.64462020    -0.09600
C953        C  0.19853107  0.06631572  0.61915277     0.00000
C954        C  0.16986227  0.04650059  0.59663991    -0.00100
C955        C  0.12298918  0.51725716  0.59666579    -0.13200
C956        C  0.10756560  0.51277353  0.62217254     0.00300
C957        C  0.24413909  0.08916901  0.61697520     0.39600
C958        C  0.06231579  0.48602391  0.62513955     0.36300
C959        C  0.13522392  0.60523444  0.67499595     0.36000
C960        C  0.06633835  0.94175873  0.71890031     0.36700
N961        N  0.28071433  0.10752092  0.61534048    -0.44000
N962        N  0.02603276  0.46508314  0.62757531    -0.44500
N963        N  0.55062978  0.90951096  0.72729610    -0.41900
N964        N  0.14862579  0.63837526  0.66650456    -0.43300
H965        H  0.09268479  0.58063712  0.71849127     0.12900
H966        H  0.10981173  0.96721592  0.67503578     0.09400
H967        H  0.20477181  0.07584302  0.66194788     0.10400
H968        H  0.10116141  0.49868572  0.57981674     0.16200
C969        C  0.49961814  0.00498234  0.77546661     0.45500
H970        H  0.50040800  0.00734996  0.79758837    -0.03500
C971        C  0.99950791  0.49995305  0.72288107     0.45600
H972        H  0.99836982  0.49764598  0.70075193    -0.03500
C973        C  0.53931873  0.00679451  0.76441392    -0.17200
C974        C  0.96437136  0.46446800  0.76236586    -0.17000
C975        C  0.49751664  0.04153656  0.76307916    -0.17300
C976        C  0.54133513  0.50416429  0.73577981    -0.17300
C977        C  0.96263479  0.46077296  0.73497586    -0.16900
C978        C  0.99914588  0.03845927  0.73625262    -0.17200
O979        O  0.84224780  0.22519022  0.95722834    -0.80800
O980        O  0.83252740  0.08724308  0.00967275    -0.65500
O981        O  0.83353266  0.15332004  0.98305404    -1.12100
C982        C  0.73201707  0.15096442  0.04034909     1.06000
O983        O  0.81272473  0.08084851  0.05093177    -0.78700
O984        O  0.74370358  0.06241205  0.01902152    -0.66300
Ni985      Ni  0.86959305  0.19134251  0.95797468     1.34900
C986        C  0.73402151  0.06860512  0.99605166     0.84800
O987        O  0.91073726  0.15455152  0.99941500    -0.79300
O988        O  0.89943000  0.16064147  0.95657764    -0.89600
C989        C  0.82199371  0.06624127  0.03040704     0.84300
O990        O  0.91477236  0.23449825  0.98181588    -0.67800
O991        O  0.73508879  0.12139678  0.05061372    -0.87000
C992        C  0.91854283  0.23905945  0.00704151     0.85200
C993        C  0.92194340  0.15895163  0.97552468     1.06700
H994        H  0.82403709  0.17267631  0.04353782     0.38600
O995        O  0.81287160  0.14831594  0.03057596    -1.09700
O996        O  0.74817452  0.10589082  0.98809264    -0.66400
Ni997      Ni  0.79277719  0.16314583  0.00078495     1.26300
O998        O  0.89185226  0.21115792  0.02171959    -0.66600
O999        O  0.75333635  0.17135964  0.02094266    -0.78900
C1000       C  0.80339741  0.21508361  0.95870139     0.84600
O1001       O  0.77688905  0.18305046  0.97081996    -0.66100
Ni1002     Ni  0.77439868  0.10159137  0.04947155     1.27400
Ni1003     Ni  0.86095989  0.14972114  0.01490109     1.26100
H1004       H  0.81863662  0.12523037  0.97363434     0.39100
C1005       C  0.79914660  0.28884878  0.91250025     0.80300
N1006       N  0.77106148  0.29764975  0.92417592    -0.78000
C1007       C  0.75138706  0.27879260  0.94634273     0.82700
N1008       N  0.76045777  0.25061675  0.95726503    -0.78000
C1009       C  0.78970646  0.24235618  0.94610514     0.82800
N1010       N  0.80910715  0.26200151  0.92397011    -0.79700
O1011       O  0.58757865  0.31302694  0.04816023    -0.80800
O1012       O  0.69142850  0.26822301  0.97120590    -0.65500
O1013       O  0.65616041  0.31167258  0.02957418    -1.12100
C1014       C  0.66943797  0.41562209  0.97077945     1.06000
O1015       O  0.73689827  0.33345361  0.95870363    -0.78700
O1016       O  0.74644957  0.40898972  0.98102103    -0.66300
Ni1017     Ni  0.61041267  0.27638708  0.05040237     1.34900
C1018       C  0.74769958  0.41484903  0.00615351     0.84800
O1019       O  0.67674306  0.24883748  0.02192349    -0.79300
O1020       O  0.63209892  0.23894227  0.05483634    -0.89600
C1021       C  0.72472115  0.29378715  0.95949231     0.84300
O1022       O  0.57131480  0.23891776  0.02183470    -0.67800
O1023       O  0.67678239  0.39442987  0.95277046    -0.87000
C1024       C  0.57696611  0.22910464  0.99827792     0.85200
C1025       C  0.65880285  0.23187718  0.04311752     1.06700
H1026       H  0.63713866  0.31284973  0.97118555     0.38600
O1027       O  0.66399636  0.32815196  0.98139553    -1.09700
O1028       O  0.71730931  0.39055950  0.02028882    -0.66400
Ni1029     Ni  0.65712516  0.35748279  0.01207348     1.26300
O1030       O  0.61371702  0.24397933  0.98891218    -0.66600
O1031       O  0.66146868  0.40478788  0.99451808    -0.78900
C1032       C  0.57364821  0.31891742  0.02661099     0.84600
O1033       O  0.59539506  0.32673358  0.00593734    -0.66100
Ni1034     Ni  0.70506407  0.36260109  0.95689751     1.27400
Ni1035     Ni  0.67117863  0.28783705  0.00063764     1.26100
H1036       H  0.68047423  0.32459417  0.04211404     0.39100
C1037       C  0.66423800  0.16020080  0.09007416     0.80300
N1038       N  0.68824343  0.14763385  0.07673141    -0.78000
C1039       C  0.70347743  0.16274224  0.05291498     0.82700
N1040       N  0.69435253  0.19050749  0.04211835    -0.78000
C1041       C  0.66941926  0.20255199  0.05499937     0.82800
N1042       N  0.65461733  0.18759314  0.07907552    -0.79700
C1043       C  0.67292834  0.00163358  0.93476725     0.80300
N1044       N  0.69494357  0.03613081  0.95269414    -0.78000
C1045       C  0.70643728  0.03088307  0.97736395     0.82700
N1046       N  0.69559584  0.99086975  0.98380365    -0.78000
C1047       C  0.67484575  0.45690260  0.96468388     0.82800
N1048       N  0.66480976  0.46254016  0.93990554    -0.79700
C1049       C  0.98645510  0.32139871  0.05941265     0.80300
N1050       N  0.95184018  0.29261427  0.04400880    -0.78000
C1051       C  0.95639228  0.27654225  0.02017528     0.82700
N1052       N  0.99633428  0.28782855  0.01235027    -0.78000
C1053       C  0.53306245  0.31814554  0.02802373     0.82800
N1054       N  0.52754620  0.33457214  0.05137840    -0.79700
C1055       C  0.51236790  0.17511432  0.93607464     0.80300
N1056       N  0.97114497  0.16056126  0.94385987    -0.78000
C1057       C  0.96418181  0.16651384  0.96949768     0.82700
N1058       N  0.49901782  0.18869703  0.98752712    -0.78000
C1059       C  0.53934230  0.20145323  0.98008020     0.82800
N1060       N  0.54565651  0.19441025  0.95425869    -0.79700
C1061       C  0.82208184  0.48127125  0.06149080     0.80300
N1062       N  0.82971188  0.01774158  0.05693662    -0.78000
C1063       C  0.81935719  0.02473734  0.03254889     0.82700
N1064       N  0.79679412  0.49265610  0.01308653    -0.78000
C1065       C  0.78433348  0.45228511  0.02013508     0.82800
N1066       N  0.79642005  0.44703126  0.04447104    -0.79700
O1067       O  0.80821545  0.12160918  0.55184118    -0.80800
O1068       O  0.92809109  0.24929204  0.49526682    -0.65500
O1069       O  0.87381593  0.18429569  0.52485499    -1.12100
C1070       C  0.76275677  0.18527111  0.47543988     1.06000
O1071       O  0.90743393  0.25605671  0.45520992    -0.78700
O1072       O  0.84458364  0.26512557  0.47884108    -0.66300
Ni1073     Ni  0.86607902  0.13865193  0.54561091     1.34900
C1074       C  0.84965096  0.27185081  0.50393845     0.84800
O1075       O  0.94868465  0.19096763  0.50506653    -0.79300
O1076       O  0.92417640  0.15428897  0.54161724    -0.89600
C1077       C  0.93637512  0.26752819  0.47359491     0.84300
O1078       O  0.84636890  0.09184302  0.51833370    -0.67800
O1079       O  0.78552333  0.18984746  0.45547950    -0.87000
C1080       C  0.85193663  0.09275907  0.49353632     0.85200
C1081       C  0.95399170  0.17629250  0.52624141     1.06700
H1082       H  0.82783153  0.15618670  0.47086416     0.38600
O1083       O  0.84605768  0.18440533  0.47965677    -1.09700
O1084       O  0.85624657  0.24777721  0.51809060    -0.66400
Ni1085     Ni  0.82411898  0.18584387  0.51331668     1.26300
O1086       O  0.87172502  0.12755234  0.48232175    -0.66600
O1087       O  0.77543888  0.18746432  0.49956611    -0.78900
C1088       C  0.77989336  0.10773179  0.53309158     0.84600
O1089       O  0.78881236  0.12433045  0.51093037    -0.66100
Ni1090     Ni  0.84631718  0.22223773  0.45550386     1.27400
Ni1091     Ni  0.89814584  0.18801217  0.49099932     1.26100
H1092       H  0.89229954  0.21043899  0.53574158     0.39100
C1093       C  0.83529388  0.33675363  0.55725347     0.80300
N1094       N  0.81235059  0.35042076  0.54396885    -0.78000
C1095       C  0.80424228  0.34167586  0.51723319     0.82700
N1096       N  0.81896507  0.31844553  0.50392451    -0.78000
C1097       C  0.84203107  0.30462203  0.51707331     0.82800
N1098       N  0.84967011  0.31370280  0.54371302    -0.79700
O1099       O  0.75843279  0.40392161  0.45412471    -0.80800
O1100       O  0.62397956  0.28684761  0.51046922    -0.65500
O1101       O  0.68578865  0.34297637  0.47865787    -1.12100
C1102       C  0.67583063  0.45445430  0.52370641     1.06000
O1103       O  0.62015644  0.30989458  0.55100520    -0.78700
O1104       O  0.59262029  0.34729106  0.51671812    -0.66300
Ni1105     Ni  0.72507180  0.34241313  0.45490419     1.34900
C1106       C  0.59436521  0.35190644  0.49187952     0.84800
O1107       O  0.68757687  0.27288939  0.49923130    -0.79300
O1108       O  0.69327124  0.28130681  0.45513369    -0.89600
C1109       C  0.60661713  0.27988373  0.53274428     0.84300
O1110       O  0.76666722  0.34234571  0.47876681    -0.67800
O1111       O  0.65400550  0.42585927  0.53963615    -0.87000
C1112       C  0.77186223  0.34830502  0.50390193     0.85200
C1113       C  0.68729996  0.25924702  0.47519590     1.06700
H1114       H  0.70924202  0.39265183  0.53433946     0.38600
O1115       O  0.68364463  0.37352633  0.52351133    -1.09700
O1116       O  0.62926979  0.36967579  0.48038807    -0.66400
Ni1117     Ni  0.68902484  0.39607694  0.48941140     1.26300
O1118       O  0.74683246  0.35501408  0.51781858    -0.66600
O1119       O  0.69143743  0.44771169  0.50280370    -0.78900
C1120       C  0.76871846  0.43390011  0.47234559     0.84600
O1121       O  0.74975341  0.42618975  0.49401221    -0.66100
Ni1122     Ni  0.63785102  0.36769806  0.54413996     1.27400
Ni1123     Ni  0.68538013  0.32262714  0.51262420     1.26100
H1124       H  0.65815895  0.32420634  0.46978562     0.39100
C1125       C  0.68219375  0.54206531  0.56666907     0.80300
N1126       N  0.66719909  0.50298191  0.55384133    -0.78000
C1127       C  0.68562211  0.49791070  0.53191010     0.82700
N1128       N  0.71977527  0.53268363  0.52264081    -0.78000
C1129       C  0.73719468  0.07325386  0.53825970     0.82800
N1130       N  0.71938212  0.07798714  0.56066058    -0.79700
C1131       C  0.03820226  0.18992058  0.57276143     0.80300
N1132       N  0.00038544  0.17312245  0.55908890    -0.78000
C1133       C  0.99697116  0.18794363  0.53571570     0.82700
N1134       N  0.03234883  0.22081728  0.52586062    -0.78000
C1135       C  0.57128777  0.23778992  0.53884684     0.82800
N1136       N  0.57407484  0.22276343  0.56250309    -0.79700
C1137       C  0.02496821  0.33385839  0.43217230     0.80300
N1138       N  0.55916413  0.34809596  0.44913133    -0.78000
C1139       C  0.55505446  0.33694026  0.47486693     0.82700
N1140       N  0.01528843  0.31144574  0.48358722    -0.78000
C1141       C  0.98040960  0.29818781  0.46680509     0.82800
N1142       N  0.98588470  0.30934357  0.44136970    -0.79700
C1143       C  0.66840988  0.16314971  0.43680072     0.80300
N1144       N  0.66166770  0.19387527  0.44763392    -0.78000
C1145       C  0.68440183  0.21818163  0.46981439     0.82700
N1146       N  0.71499501  0.21234935  0.48077854    -0.78000
C1147       C  0.72201294  0.18166033  0.46984039     0.82800
N1148       N  0.69905343  0.15766763  0.44767187    -0.79700
C1149       C  0.83117913  0.52209948  0.43004394     0.80300
N1150       N  0.84433190  0.05686219  0.44974651    -0.78000
C1151       C  0.83521676  0.05280863  0.47593643     0.82700
N1152       N  0.81115588  0.51379992  0.48226552    -0.78000
C1153       C  0.79816568  0.47818443  0.46525592     0.82800
N1154       N  0.80818905  0.48298869  0.43944287    -0.79700
C1155       C  0.96595770  0.46442389  0.27810930     0.45500
H1156       H  0.96419151  0.46460307  0.30011240    -0.03500
C1157       C  0.97228178  0.46549087  0.22716701     0.45600
H1158       H  0.97570900  0.46546826  0.20528957    -0.03500
C1159       C  0.50466895  0.00238671  0.27007216    -0.17200
C1160       C  0.96664501  0.42531145  0.26547450    -0.17000
C1161       C  0.92948675  0.46613534  0.26339991    -0.17300
C1162       C  0.50710574  0.00298601  0.24318544    -0.17300
C1163       C  0.96948833  0.42608496  0.23853959    -0.16900
C1164       C  0.93254821  0.46594532  0.23615693    -0.17200
C1165       C  0.81226744  0.48877993  0.35674091    -0.02000
C1166       C  0.85387920  0.51089707  0.34772865     0.06600
C1167       C  0.88844709  0.04434939  0.36860255    -0.07900
C1168       C  0.88006209  0.05013546  0.39512076     0.04100
C1169       C  0.83899679  0.52445297  0.40122380    -0.15200
C1170       C  0.80523811  0.49537212  0.38332063    -0.08500
C1171       C  0.86486037  0.49568084  0.32280032     0.05000
C1172       C  0.88072940  0.52212484  0.30159700    -0.09600
C1173       C  0.89705784  0.51057880  0.27965124     0.00000
C1174       C  0.89942119  0.47296437  0.27952123    -0.00100
C1175       C  0.88056449  0.44540931  0.29978955    -0.13200
C1176       C  0.86295910  0.45594187  0.32106151     0.00300
C1177       C  0.91185339  0.53845296  0.25817776     0.39600
C1178       C  0.84907754  0.93100812  0.34548757     0.36300
C1179       C  0.77683726  0.45724878  0.33943461     0.36000
C1180       C  0.91533818  0.07860006  0.41352258     0.36700
N1181       N  0.92267610  0.56088367  0.24093969    -0.44000
N1182       N  0.83550856  0.90794270  0.36231658    -0.44500
N1183       N  0.94352871  0.10138062  0.42834126    -0.41900
N1184       N  0.74859283  0.43190951  0.32550701    -0.43300
H1185       H  0.77350024  0.47619011  0.39045590     0.12900
H1186       H  0.92100896  0.06092856  0.36249682     0.09400
H1187       H  0.88126179  0.55222356  0.30250877     0.10400
H1188       H  0.88398270  0.91968164  0.30318524     0.16200
C1189       C  0.58480969  0.10791370  0.38139582    -0.02000
C1190       C  0.60855442  0.10434185  0.36071168     0.06600
C1191       C  0.65213981  0.12050996  0.36495374    -0.07900
C1192       C  0.67229551  0.13926258  0.38978117     0.04100
C1193       C  0.64837213  0.14205377  0.41073040    -0.15200
C1194       C  0.60498463  0.12699564  0.40620375    -0.08500
C1195       C  0.58790359  0.08165098  0.33495811     0.05000
C1196       C  0.56875666  0.09804258  0.31908692    -0.09600
C1197       C  0.54381821  0.07422502  0.29633625     0.00000
C1198       C  0.53807503  0.03347144  0.28946503    -0.00100
C1199       C  0.55989300  0.01877692  0.30431622    -0.13200
C1200       C  0.58484004  0.04247828  0.32695114     0.00300
C1201       C  0.52384396  0.09214467  0.28125556     0.39600
C1202       C  0.60482484  0.02476239  0.34243674     0.36300
C1203       C  0.53962126  0.09118317  0.37788796     0.36000
C1204       C  0.71770125  0.15682427  0.39271235     0.36700
N1205       N  0.00474917  0.60614604  0.27278981    -0.44000
N1206       N  0.62106839  0.01077151  0.35479678    -0.44500
N1207       N  0.75408179  0.17085696  0.39484844    -0.41900
N1208       N  0.50343438  0.07785558  0.37511588    -0.43300
H1209       H  0.58675876  0.12966736  0.42218798     0.12900
H1210       H  0.67030342  0.11815118  0.34881869     0.09400
H1211       H  0.57205956  0.12875414  0.32508553     0.10400
H1212       H  0.55609173  0.98791796  0.29889970     0.16200
C1213       C  0.99810512  0.31802107  0.35835904    -0.02000
C1214       C  0.01535060  0.36056570  0.35140549     0.06600
C1215       C  0.53855742  0.39390881  0.37060699    -0.07900
C1216       C  0.54609029  0.38646731  0.39663939     0.04100
C1217       C  0.02808966  0.34394751  0.40389969    -0.15200
C1218       C  0.00404562  0.31007579  0.38446789    -0.08500
C1219       C  0.00202134  0.37028520  0.32587351     0.05000
C1220       C  0.95883808  0.35668172  0.32103363    -0.09600
C1221       C  0.94555195  0.37018030  0.29933353     0.00000
C1222       C  0.97568887  0.39817638  0.28219514    -0.00100
C1223       C  0.51591179  0.40680709  0.28546146    -0.13200
C1224       C  0.52905470  0.39365903  0.30747546     0.00300
C1225       C  0.90071459  0.35372162  0.29454916     0.39600
C1226       C  0.57343014  0.40701528  0.31117105     0.36300
C1227       C  0.97377930  0.28206195  0.33906317     0.36000
C1228       C  0.57109091  0.42271437  0.41560188     0.36700
N1229       N  0.86451785  0.33929056  0.29058958    -0.44000
N1230       N  0.60900095  0.41773789  0.31424067    -0.44500
N1231       N  0.59116801  0.45169076  0.43086257    -0.41900
N1232       N  0.95458644  0.25333153  0.32348872    -0.43300
H1233       H  0.98866435  0.27722155  0.38996235     0.12900
H1234       H  0.55134766  0.42656454  0.36533234     0.09400
H1235       H  0.93561778  0.33668646  0.33480751     0.10400
H1236       H  0.53932329  0.42725214  0.27196517     0.16200
C1237       C  0.82632615  0.99425125  0.13866986    -0.02000
C1238       C  0.83935636  0.46599027  0.14370212     0.06600
C1239       C  0.83879584  0.43685998  0.12400656    -0.07900
C1240       C  0.83326281  0.44105339  0.09705379     0.04100
C1241       C  0.82806606  0.47496289  0.08957118    -0.15200
C1242       C  0.81993854  0.99791501  0.11182494    -0.08500
C1243       C  0.86016625  0.46979912  0.16979744     0.05000
C1244       C  0.83804370  0.44231984  0.18970664    -0.09600
C1245       C  0.86002609  0.44221308  0.21285529     0.00000
C1246       C  0.90480405  0.46944216  0.21573621    -0.00100
C1247       C  0.92211083  0.99963262  0.19897050    -0.13200
C1248       C  0.90012285  0.99885429  0.17621179     0.00300
C1249       C  0.83626292  0.41210163  0.23216284     0.39600
C1250       C  0.92370009  0.02856137  0.15651829     0.36300
C1251       C  0.82613628  0.02457900  0.15836276     0.36000
C1252       C  0.83623300  0.41213480  0.07757874     0.36700
N1253       N  0.81669738  0.38793478  0.24756359    -0.44000
N1254       N  0.94267988  0.05245488  0.14085545    -0.44500
N1255       N  0.83876404  0.38893825  0.06206335    -0.41900
N1256       N  0.82614630  0.04888621  0.17420937    -0.43300
H1257       H  0.81375794  0.02270944  0.10644713     0.12900
H1258       H  0.84580547  0.41271629  0.12962131     0.09400
H1259       H  0.80404097  0.42006801  0.18673340     0.10400
H1260       H  0.95585784  0.02155910  0.20060660     0.16200
C1261       C  0.51181746  0.39247473  0.18390257    -0.02000
C1262       C  0.97515262  0.36162502  0.16951281     0.06600
C1263       C  0.93578857  0.34608335  0.18102711    -0.07900
C1264       C  0.93360727  0.36220215  0.20638937     0.04100
C1265       C  0.97122133  0.39419980  0.22033774    -0.15200
C1266       C  0.50951471  0.40765654  0.20946561    -0.08500
C1267       C  0.97590346  0.35015154  0.14112348     0.05000
C1268       C  0.49351339  0.32746179  0.13386526    -0.09600
C1269       C  0.99508438  0.31366820  0.10749573     0.00000
C1270       C  0.98178549  0.33036816  0.08740480    -0.00100
C1271       C  0.96453160  0.35590793  0.09428206    -0.13200
C1272       C  0.96168213  0.36613453  0.12106083     0.00300
C1273       C  0.51653740  0.29218149  0.10155023     0.39600
C1274       C  0.94538707  0.39408574  0.12751079     0.36300
C1275       C  0.55302618  0.41032601  0.17261908     0.36000
C1276       C  0.89233044  0.34831611  0.21669657     0.36700
N1277       N  0.53138500  0.27122307  0.09703442    -0.44000
N1278       N  0.93235708  0.41649387  0.13267795    -0.44500
N1279       N  0.85909683  0.33672279  0.22488045    -0.41900
N1280       N  0.58609665  0.42480142  0.16362971    -0.43300
H1281       H  0.53823955  0.43277656  0.21998191     0.12900
H1282       H  0.90670318  0.32333594  0.16955702     0.09400
H1283       H  0.50506911  0.31612699  0.14948903     0.10400
H1284       H  0.95419722  0.36853814  0.07879234     0.16200
C1285       C  0.61617030  0.08073211  0.14247060    -0.02000
C1286       C  0.61500168  0.10617533  0.16428856     0.06600
C1287       C  0.63215686  0.15026620  0.16201503    -0.07900
C1288       C  0.64836049  0.16870748  0.13808937     0.04100
C1289       C  0.64816600  0.14291341  0.11600515    -0.15200
C1290       C  0.63303128  0.09931009  0.11875125    -0.08500
C1291       C  0.59246759  0.08654344  0.18854181     0.05000
C1292       C  0.60474357  0.06261392  0.20325974    -0.09600
C1293       C  0.57936971  0.03773008  0.22324875     0.00000
C1294       C  0.54167850  0.03740546  0.22893872    -0.00100
C1295       C  0.53278666  0.06565187  0.21675911    -0.13200
C1296       C  0.55666569  0.08884720  0.19600223     0.00300
C1297       C  0.59236973  0.01259276  0.23729396     0.39600
C1298       C  0.54112073  0.11112641  0.18101432     0.36300
C1299       C  0.59821375  0.03506754  0.14336834     0.36000
C1300       C  0.66594314  0.21424521  0.13699358     0.36700
N1301       N  0.60636922  0.49603222  0.24768486    -0.44000
N1302       N  0.52840597  0.12858402  0.16883339    -0.44500
N1303       N  0.68012286  0.25078282  0.13620687    -0.41900
N1304       N  0.58381020  0.99848421  0.14406658    -0.43300
H1305       H  0.63307439  0.07928456  0.10196813     0.12900
H1306       H  0.63197644  0.17012714  0.17884394     0.09400
H1307       H  0.63302145  0.06178872  0.19825297     0.10400
H1308       H  0.50538096  0.06756915  0.22236516     0.16200
C1309       C  0.88499472  0.34585663  0.86338120    -0.02000
C1310       C  0.86367074  0.35550990  0.84395808     0.06600
C1311       C  0.82048501  0.34154216  0.84655499    -0.07900
C1312       C  0.79871387  0.31914973  0.86832861     0.04100
C1313       C  0.82021499  0.31013932  0.88816626    -0.15200
C1314       C  0.86318505  0.32307788  0.88507321    -0.08500
C1315       C  0.88635132  0.38185544  0.82152142     0.05000
C1316       C  0.90308825  0.36608277  0.80209779    -0.09600
C1317       C  0.92687810  0.39136148  0.78169043     0.00000
C1318       C  0.93392502  0.43312609  0.78041298    -0.00100
C1319       C  0.91667134  0.44845434  0.79967623    -0.13200
C1320       C  0.89288830  0.42332602  0.81992848     0.00300
C1321       C  0.94610514  0.37481193  0.76363303     0.39600
C1322       C  0.87740557  0.44173561  0.83962677     0.36300
C1323       C  0.92978965  0.36083885  0.86213823     0.36000
C1324       C  0.75404442  0.30497017  0.86936739     0.36700
N1325       N  0.96155528  0.36128982  0.74933661    -0.44000
N1326       N  0.86504752  0.45659854  0.85536843    -0.44500
N1327       N  0.71823807  0.29361746  0.87011962    -0.41900
N1328       N  0.96573111  0.37300240  0.86114091    -0.43300
H1329       H  0.88024628  0.31668994  0.90011911     0.12900
H1330       H  0.80381433  0.34853825  0.83157485     0.09400
H1331       H  0.89844727  0.33433534  0.80330992     0.10400
H1332       H  0.92289113  0.48085318  0.79937340     0.16200
C1333       C  0.55103222  0.13642078  0.81198863    -0.02000
C1334       C  0.51585004  0.13096961  0.82601697     0.06600
C1335       C  0.97429454  0.10111631  0.81463400    -0.07900
C1336       C  0.96873255  0.07558329  0.79140486     0.04100
C1337       C  0.50286139  0.07835460  0.77999004    -0.15200
C1338       C  0.54419315  0.10937413  0.78938477    -0.08500
C1339       C  0.52087296  0.14761817  0.85404210     0.05000
C1340       C  0.00032455  0.16947010  0.86128810    -0.09600
C1341       C  0.99853422  0.18057775  0.88798539     0.00000
C1342       C  0.51898608  0.16985356  0.90794406    -0.00100
C1343       C  0.53763797  0.14585197  0.90060598    -0.13200
C1344       C  0.53803136  0.13393900  0.87387204     0.00300
C1345       C  0.97691529  0.20356614  0.89445182     0.39600
C1346       C  0.55329336  0.10508075  0.86749919     0.36300
C1347       C  0.59420762  0.16738160  0.82147179     0.36000
C1348       C  0.92625659  0.04641659  0.78015720     0.36700
N1349       N  0.95937331  0.22173933  0.89962709    -0.44000
N1350       N  0.56562837  0.08210060  0.86229058    -0.44500
N1351       N  0.89485746  0.52865615  0.76900780    -0.41900
N1352       N  0.62875552  0.19216189  0.82915010    -0.43300
H1353       H  0.57104957  0.11056684  0.78006039     0.12900
H1354       H  0.94659484  0.09705036  0.82466562     0.09400
H1355       H  0.98561481  0.17811924  0.84596256     0.10400
H1356       H  0.54947991  0.13416676  0.91584954     0.16200
C1357       C  0.60729865  0.50130052  0.87630626    -0.02000
C1358       C  0.62890593  0.00532588  0.85647180     0.06600
C1359       C  0.67051259  0.01373818  0.86077234    -0.07900
C1360       C  0.68591065  0.01368809  0.88639023     0.04100
C1361       C  0.65989055  0.00648486  0.90814578    -0.15200
C1362       C  0.62291312  0.50287858  0.90208872    -0.08500
C1363       C  0.61251865  0.00354139  0.82907137     0.05000
C1364       C  0.62866433  0.04149538  0.81605958    -0.09600
C1365       C  0.60829696  0.04238431  0.79254291     0.00000
C1366       C  0.57056259  0.00514971  0.78241181    -0.00100
C1367       C  0.55812584  0.46491359  0.79283215    -0.13200
C1368       C  0.57917294  0.46343674  0.81568144     0.00300
C1369       C  0.62633042  0.08189813  0.77963869     0.39600
C1370       C  0.56215843  0.42339746  0.82800768     0.36300
C1371       C  0.56581168  0.49655424  0.87281268     0.36000
C1372       C  0.72765793  0.01915127  0.88978435     0.36700
N1373       N  0.64191896  0.11376243  0.76936535    -0.44000
N1374       N  0.54885348  0.39127418  0.83780132    -0.44500
N1375       N  0.76096431  0.02314774  0.89251649    -0.41900
N1376       N  0.53249888  0.49249802  0.86989771    -0.43300
H1377       H  0.60355171  0.49980144  0.91885850     0.12900
H1378       H  0.69041063  0.01898652  0.84400325     0.09400
H1379       H  0.65597997  0.07081407  0.82492093     0.10400
H1380       H  0.52825400  0.43675834  0.78560522     0.16200
C1381       C  0.92663669  0.38694850  0.67370275    -0.02000
C1382       C  0.88550580  0.37991570  0.66876111     0.06600
C1383       C  0.86586678  0.39013247  0.68926624    -0.07900
C1384       C  0.88846909  0.41119736  0.71351780     0.04100
C1385       C  0.93174939  0.42370462  0.71676095    -0.15200
C1386       C  0.94931002  0.40882881  0.69746963    -0.08500
C1387       C  0.86533178  0.36642379  0.64144510     0.05000
C1388       C  0.85353771  0.32550499  0.63015370    -0.09600
C1389       C  0.84270383  0.31469885  0.60290067     0.00000
C1390       C  0.84282796  0.34504752  0.58650493    -0.00100
C1391       C  0.85207023  0.38497776  0.59816802    -0.13200
C1392       C  0.86391858  0.39611223  0.62526839     0.00300
C1393       C  0.83191533  0.27238094  0.59235784     0.39600
C1394       C  0.87780132  0.43943629  0.63529998     0.36300
C1395       C  0.94770634  0.37540480  0.65377949     0.36000
C1396       C  0.86749161  0.42220780  0.73372015     0.36700
N1397       N  0.82345564  0.23855997  0.58385320    -0.44000
N1398       N  0.88910826  0.47451976  0.64260744    -0.44500
N1399       N  0.85011835  0.43068201  0.74973186    -0.41900
N1400       N  0.96442317  0.36592434  0.63783206    -0.43300
H1401       H  0.98227519  0.41755603  0.70001413     0.12900
H1402       H  0.83370305  0.38357015  0.68582081     0.09400
H1403       H  0.85473706  0.30266051  0.64247792     0.10400
H1404       H  0.85236289  0.40850917  0.58578466     0.16200
C1405       C  0.54815065  0.13741441  0.69734799    -0.02000
C1406       C  0.01861783  0.12379067  0.67622244     0.06600
C1407       C  0.97861167  0.08660197  0.67791019    -0.07900
C1408       C  0.97013114  0.06092641  0.69923996     0.04100
C1409       C  0.00216344  0.07161803  0.71904383    -0.15200
C1410       C  0.53882940  0.11156299  0.71875505    -0.08500
C1411       C  0.02790645  0.14663318  0.65139938     0.05000
C1412       C  0.05926266  0.14778223  0.63505398    -0.09600
C1413       C  0.06474269  0.16354957  0.60971461     0.00000
C1414       C  0.03818692  0.17798070  0.60033921    -0.00100
C1415       C  0.00807757  0.17837729  0.61714482    -0.13200
C1416       C  0.00293965  0.16316899  0.64247682     0.00300
C1417       C  0.09573923  0.16198728  0.59310247     0.39600
C1418       C  0.47488122  0.16877141  0.65897692     0.36300
C1419       C  0.58876749  0.17687419  0.69775029     0.36000
C1420       C  0.92792748  0.02435048  0.70075516     0.36700
N1421       N  0.12055855  0.16064552  0.57978008    -0.44000
N1422       N  0.45083049  0.17145095  0.67237061    -0.44500
N1423       N  0.89348602  0.99593354  0.70195241    -0.41900
N1424       N  0.62130688  0.20858251  0.69813979    -0.43300
H1425       H  0.56280367  0.12094206  0.73463545     0.12900
H1426       H  0.95433143  0.07687892  0.66208392     0.09400
H1427       H  0.07824451  0.13465325  0.64165219     0.10400
H1428       H  0.98794190  0.19005743  0.61024842     0.16200
C1429       C  0.61836378  0.06567337  0.68844303    -0.02000
C1430       C  0.62151266  0.52957801  0.67219645     0.06600
C1431       C  0.60481691  0.48974983  0.68320385    -0.07900
C1432       C  0.58306622  0.48208783  0.70680049     0.04100
C1433       C  0.57755276  0.51437168  0.71914636    -0.15200
C1434       C  0.59653246  0.05732437  0.71180603    -0.08500
C1435       C  0.63667617  0.53441555  0.64492533     0.05000
C1436       C  0.67973998  0.56293792  0.64096875    -0.09600
C1437       C  0.69496249  0.56863365  0.61535266     0.00000
C1438       C  0.66674931  0.54453091  0.59321171    -0.00100
C1439       C  0.62447080  0.02111838  0.59959772    -0.13200
C1440       C  0.60853797  0.01711500  0.62497521     0.00300
C1441       C  0.73989493  0.59792219  0.61273727     0.39600
C1442       C  0.56302442  0.99254444  0.62764892     0.36300
C1443       C  0.63403891  0.10686313  0.67781390     0.36000
C1444       C  0.56554547  0.44081228  0.71754114     0.36700
N1445       N  0.77589134  0.62167238  0.61080786    -0.44000
N1446       N  0.52660707  0.97348853  0.62999070    -0.44500
N1447       N  0.05157546  0.40857621  0.72553226    -0.41900
N1448       N  0.64657006  0.13972991  0.66911613    -0.43300
H1449       H  0.59231510  0.08191789  0.72157303     0.12900
H1450       H  0.60704132  0.46417282  0.67270471     0.09400
H1451       H  0.70153198  0.58052492  0.65800838     0.10400
H1452       H  0.60267085  0.00363189  0.58255015     0.16200
C1453       C  0.50409386  0.50622985  0.77465198     0.45500
H1454       H  0.50592474  0.50917275  0.79678194    -0.03500
C1455       C  0.00075931  0.99968694  0.72434164     0.45600
H1456       H  0.00088461  0.99829036  0.70224496    -0.03500
C1457       C  0.54252484  0.50627648  0.76291712    -0.17200
C1458       C  0.96353131  0.96238457  0.76282114    -0.17000
C1459       C  0.50292449  0.54323959  0.76227504    -0.17300
C1460       C  0.53919333  0.00521721  0.73728684    -0.17300
C1461       C  0.96320225  0.95983910  0.73545606    -0.16900
C1462       C  0.99858343  0.53917585  0.73466234    -0.17200
O1463       O  0.84151453  0.72690820  0.95661474    -0.80800
O1464       O  0.83482721  0.58971617  0.00742422    -0.65500
O1465       O  0.83448409  0.65537705  0.98130831    -1.12100
C1466       C  0.73167149  0.64976669  0.03922594     1.06000
O1467       O  0.81580798  0.58306034  0.04885632    -0.78700
O1468       O  0.74552743  0.56317934  0.01759550    -0.66300
Ni1469     Ni  0.87004388  0.69431366  0.95637888     1.34900
C1470       C  0.73551255  0.56918591  0.99465059     0.84800
O1471       O  0.91215586  0.65767781  0.99672220    -0.79300
O1472       O  0.90113520  0.66488344  0.95400421    -0.89600
C1473       C  0.82491564  0.56870425  0.02814741     0.84300
O1474       O  0.91510517  0.73766350  0.98027241    -0.67800
O1475       O  0.73615609  0.62116915  0.04968964    -0.87000
C1476       C  0.91874294  0.74186386  0.00550638     0.85200
C1477       C  0.92328014  0.66225762  0.97277663     1.06700
H1478       H  0.82503015  0.67396890  0.04195345     0.38600
O1479       O  0.81409137  0.64963426  0.02898809    -1.09700
O1480       O  0.74937705  0.60635375  0.98664621    -0.66400
Ni1481     Ni  0.79302865  0.66379796  0.99941543     1.26300
O1482       O  0.89240708  0.71337015  0.01998371    -0.66600
O1483       O  0.75267850  0.67045969  0.01977498    -0.78900
C1484       C  0.80227487  0.71540950  0.95778622     0.84600
O1485       O  0.77617868  0.68290717  0.96964363    -0.66100
Ni1486     Ni  0.77647039  0.60258031  0.04797419     1.27400
Ni1487     Ni  0.86243084  0.65204898  0.01285383     1.26100
H1488       H  0.82004966  0.62741821  0.97171899     0.39100
C1489       C  0.79589914  0.78640922  0.91082723     0.80300
N1490       N  0.76811641  0.79570271  0.92251290    -0.78000
C1491       C  0.74925843  0.77770119  0.94510282     0.82700
N1492       N  0.75879344  0.75008794  0.95630496    -0.78000
C1493       C  0.78770481  0.74154983  0.94502669     0.82800
N1494       N  0.80630311  0.76021514  0.92257483    -0.79700
O1495       O  0.58663851  0.81110861  0.04794475    -0.80800
O1496       O  0.68970169  0.76716314  0.97009252    -0.65500
O1497       O  0.65442682  0.80914053  0.02907850    -1.12100
C1498       C  0.66878793  0.91513263  0.97160311     1.06000
O1499       O  0.73572961  0.83274390  0.95832838    -0.78700
O1500       O  0.74543635  0.90793590  0.98167268    -0.66300
Ni1501     Ni  0.60829628  0.77341599  0.04942401     1.34900
C1502       C  0.74640557  0.91273874  0.00686602     0.84800
O1503       O  0.67482341  0.74636389  0.02055398    -0.79300
O1504       O  0.62892013  0.73490306  0.05291854    -0.89600
C1505       C  0.72305210  0.79289315  0.95851541     0.84300
O1506       O  0.56934485  0.73755975  0.02044387    -0.67800
O1507       O  0.67606451  0.89425297  0.95334625    -0.87000
C1508       C  0.57539152  0.72810938  0.99692183     0.85200
C1509       C  0.65597588  0.72829259  0.04126558     1.06700
H1510       H  0.63592573  0.81210621  0.97085894     0.38600
O1511       O  0.66272294  0.82704870  0.98114425    -1.09700
O1512       O  0.71589856  0.88774840  0.02062488    -0.66400
Ni1513     Ni  0.65591628  0.85567855  0.01218658     1.26300
O1514       O  0.61227361  0.74263360  0.98786525    -0.66600
O1515       O  0.66094064  0.90384216  0.99526806    -0.78900
C1516       C  0.57263247  0.81750338  0.02661190     0.84600
O1517       O  0.59426745  0.82565648  0.00588758    -0.66100
Ni1518     Ni  0.70418501  0.86220907  0.95702919     1.27400
Ni1519     Ni  0.66958916  0.78609450  0.99984142     1.26100
H1520       H  0.67854745  0.82150004  0.04174791     0.39100
C1521       C  0.66019776  0.65564519  0.08776293     0.80300
N1522       N  0.68536772  0.64397192  0.07494079    -0.78000
C1523       C  0.70157917  0.65993642  0.05138560     0.82700
N1524       N  0.69214927  0.68742569  0.04044492    -0.78000
C1525       C  0.66612141  0.69845572  0.05285279     0.82800
N1526       N  0.65053623  0.68284407  0.07661436    -0.79700
C1527       C  0.67495301  0.50211753  0.93326183     0.80300
N1528       N  0.69683923  0.53667292  0.95117473    -0.78000
C1529       C  0.70785408  0.53144762  0.97600190     0.82700
N1530       N  0.69651194  0.49141444  0.98263728    -0.78000
C1531       C  0.67387688  0.95641828  0.96580387     0.82800
N1532       N  0.66320168  0.96208509  0.94120460    -0.79700
C1533       C  0.98502838  0.82239664  0.05905034     0.80300
N1534       N  0.95088594  0.79477095  0.04287525    -0.78000
C1535       C  0.95615500  0.77938230  0.01898886     0.82700
N1536       N  0.99626630  0.79024453  0.01186106    -0.78000
C1537       C  0.53215204  0.81679777  0.02842499     0.82800
N1538       N  0.52652018  0.83155718  0.05235000    -0.79700
C1539       C  0.51278069  0.67750948  0.93388201     0.80300
N1540       N  0.97319940  0.66318896  0.94131855    -0.78000
C1541       C  0.96532819  0.66913255  0.96683157     0.82700
N1542       N  0.49788486  0.68926079  0.98532103    -0.78000
C1543       C  0.53824482  0.70154188  0.97832337     0.82800
N1544       N  0.54528735  0.69532506  0.95257553    -0.79700
C1545       C  0.81731132  0.97771821  0.06376723     0.80300
N1546       N  0.83461630  0.52112593  0.05426366    -0.78000
C1547       C  0.82277763  0.52744428  0.03011429     0.82700
N1548       N  0.79486116  0.99042528  0.01484200    -0.78000
C1549       C  0.78244061  0.94986964  0.02149398     0.82800
N1550       N  0.79317145  0.94393385  0.04607053    -0.79700
O1551       O  0.80483803  0.62068678  0.54926448    -0.80800
O1552       O  0.92426641  0.74999949  0.49486211    -0.65500
O1553       O  0.87051157  0.68389817  0.52307460    -1.12100
C1554       C  0.75921191  0.68613845  0.47496821     1.06000
O1555       O  0.90410301  0.75855290  0.45512643    -0.78700
O1556       O  0.84078384  0.76602168  0.47887996    -0.66300
Ni1557     Ni  0.86256896  0.63771077  0.54314942     1.34900
C1558       C  0.84602325  0.77190190  0.50397086     0.84800
O1559       O  0.94541735  0.69150545  0.50318601    -0.79300
O1560       O  0.92037435  0.65321424  0.53910624    -0.89600
C1561       C  0.93268291  0.76958643  0.47375734     0.84300
O1562       O  0.84359342  0.59199462  0.51526915    -0.67800
O1563       O  0.78180779  0.69162605  0.45474455    -0.87000
C1564       C  0.84992727  0.59356265  0.49055765     0.85200
C1565       C  0.95027432  0.67561667  0.52394379     1.06700
H1566       H  0.82477862  0.65753235  0.46897760     0.38600
O1567       O  0.84283796  0.68547986  0.47814761    -1.09700
O1568       O  0.85295667  0.74752836  0.51756504    -0.66400
Ni1569     Ni  0.82094785  0.68574736  0.51194183     1.26300
O1570       O  0.86920709  0.62865602  0.47957299    -0.66600
O1571       O  0.77228528  0.68768940  0.49885836    -0.78900
C1572       C  0.77686081  0.60711384  0.53036713     0.84600
O1573       O  0.78592013  0.62440130  0.50848825    -0.66100
Ni1574     Ni  0.84286629  0.72423965  0.45485599     1.27400
Ni1575     Ni  0.89498792  0.68892493  0.48926784     1.26100
H1576       H  0.88886742  0.70967588  0.53429972     0.39100
C1577       C  0.83064734  0.83426692  0.55831105     0.80300
N1578       N  0.80753281  0.84816276  0.54541867    -0.78000
C1579       C  0.79959325  0.84021630  0.51861895     0.82700
N1580       N  0.81472614  0.81775012  0.50491617    -0.78000
C1581       C  0.83791188  0.80376895  0.51769629     0.82800
N1582       N  0.84532340  0.81187569  0.54437081    -0.79700
O1583       O  0.75503317  0.90326553  0.45565451    -0.80800
O1584       O  0.62000397  0.78771659  0.51109012    -0.65500
O1585       O  0.68206783  0.84313233  0.47990163    -1.12100
C1586       C  0.67430361  0.95555101  0.52561390     1.06000
O1587       O  0.61565002  0.80988184  0.55175115    -0.78700
O1588       O  0.58942584  0.84839869  0.51755788    -0.66300
Ni1589     Ni  0.72095904  0.84174541  0.45621391     1.34900
C1590       C  0.59172018  0.85364113  0.49280032     0.84800
O1591       O  0.68250836  0.77226132  0.50032963    -0.79300
O1592       O  0.68833094  0.78049156  0.45624784    -0.89600
C1593       C  0.60258549  0.78024428  0.53326777     0.84300
O1594       O  0.76200172  0.84102048  0.48024856    -0.67800
O1595       O  0.65125430  0.92666319  0.54110438    -0.87000
C1596       C  0.76729256  0.84703387  0.50539199     0.85200
C1597       C  0.68201934  0.75838965  0.47632744     1.06700
H1598       H  0.70559425  0.89227547  0.53588409     0.38600
O1599       O  0.68008596  0.87356690  0.52487381    -1.09700
O1600       O  0.62687667  0.87154721  0.48161481    -0.66400
Ni1601     Ni  0.68636146  0.89666059  0.49093330     1.26300
O1602       O  0.74243612  0.85390640  0.51935084    -0.66600
O1603       O  0.68992418  0.94869541  0.50473918    -0.78900
C1604       C  0.76578075  0.93311435  0.47405969     0.84600
O1605       O  0.74690063  0.92541216  0.49574530    -0.66100
Ni1606     Ni  0.63415297  0.86804212  0.54524538     1.27400
Ni1607     Ni  0.68110773  0.82239962  0.51377556     1.26100
H1608       H  0.65441306  0.82485784  0.47094423     0.39100
C1609       C  0.68422557  0.04410776  0.56959762     0.80300
N1610       N  0.66783438  0.00504546  0.55638189    -0.78000
C1611       C  0.68582944  0.99946078  0.53436273     0.82700
N1612       N  0.72092509  0.03371047  0.52537482    -0.78000
C1613       C  0.73448108  0.57222867  0.53511288     0.82800
N1614       N  0.71629082  0.57652081  0.55741724    -0.79700
C1615       C  0.03309447  0.68638394  0.57030053     0.80300
N1616       N  0.99563309  0.67002336  0.55627891    -0.78000
C1617       C  0.99280957  0.68625468  0.53334862     0.82700
N1618       N  0.02829461  0.71991453  0.52432654    -0.78000
C1619       C  0.56756934  0.73794685  0.53874147     0.82800
N1620       N  0.57000228  0.72188885  0.56200958    -0.79700
C1621       C  0.02151701  0.83698579  0.43331224     0.80300
N1622       N  0.55748132  0.85042319  0.44977866    -0.78000
C1623       C  0.55280020  0.83918443  0.47551776     0.82700
N1624       N  0.01150043  0.81357591  0.48448461    -0.78000
C1625       C  0.97675913  0.80112950  0.46772600     0.82800
N1626       N  0.98248095  0.81296732  0.44254261    -0.79700
C1627       C  0.66024142  0.65941897  0.43982947     0.80300
N1628       N  0.65416804  0.69088332  0.45024190    -0.78000
C1629       C  0.67918546  0.71727253  0.47124363     0.82700
N1630       N  0.71140279  0.71299394  0.48110785    -0.78000
C1631       C  0.71796932  0.68193202  0.47036547     0.82800
N1632       N  0.69267675  0.65568460  0.44956630    -0.79700
C1633       C  0.82913601  0.02183665  0.43234782     0.80300
N1634       N  0.84472244  0.55752681  0.44694882    -0.78000
C1635       C  0.83496731  0.55375672  0.47309164     0.82700
N1636       N  0.81030534  0.01275332  0.48475428    -0.78000
C1637       C  0.79562251  0.97737836  0.46720443     0.82800
N1638       N  0.80502488  0.98254948  0.44128413    -0.79700
C1639       C  0.96591124  0.96489154  0.27873361     0.45500
H1640       H  0.96537333  0.96513246  0.30078880    -0.03500
C1641       C  0.96923562  0.96534285  0.22760112     0.45600
H1642       H  0.97122266  0.96524021  0.20560759    -0.03500
C1643       C  0.50533248  0.50320244  0.27005864    -0.17200
C1644       C  0.96450365  0.92500053  0.26543233    -0.17000
C1645       C  0.92935527  0.96768332  0.26526742    -0.17300
C1646       C  0.50904661  0.50461702  0.24327590    -0.17300
C1647       C  0.96571400  0.92528709  0.23840201    -0.16900
C1648       C  0.93081913  0.96719078  0.23795685    -0.17200
C1649       C  0.81343285  0.99307896  0.35843020    -0.02000
C1650       C  0.85571885  0.01431985  0.35051594     0.06600
C1651       C  0.88697889  0.54299091  0.36481777    -0.07900
C1652       C  0.87982271  0.55012730  0.39144086     0.04100
C1653       C  0.83831219  0.02522575  0.40377335    -0.15200
C1654       C  0.80508279  0.99828683  0.38495015    -0.08500
C1655       C  0.86736513  0.99929220  0.32584071     0.05000
C1656       C  0.88324517  0.02556883  0.30459828    -0.09600
C1657       C  0.89923924  0.01369074  0.28262938     0.00000
C1658       C  0.90086185  0.97563737  0.28234359    -0.00100
C1659       C  0.88268594  0.94859834  0.30298467    -0.13200
C1660       C  0.86568585  0.95969189  0.32439266     0.00300
C1661       C  0.91477022  0.04190663  0.26136168     0.39600
C1662       C  0.84557658  0.42642042  0.34166854     0.36300
C1663       C  0.77860127  0.96387050  0.33995035     0.36000
C1664       C  0.91551366  0.58118874  0.40872185     0.36700
N1665       N  0.92620194  0.06469480  0.24431411    -0.44000
N1666       N  0.83121509  0.40238685  0.35793816    -0.44500
N1667       N  0.94418616  0.60620532  0.42250398    -0.41900
N1668       N  0.75088478  0.94058024  0.32498804    -0.43300
H1669       H  0.77272821  0.97973250  0.39126364     0.12900
H1670       H  0.91903150  0.56036149  0.35788452     0.09400
H1671       H  0.88401082  0.05578535  0.30548256     0.10400
H1672       H  0.88199045  0.41658753  0.29987486     0.16200
C1673       C  0.57492925  0.59572506  0.38612568    -0.02000
C1674       C  0.59976354  0.59722807  0.36466272     0.06600
C1675       C  0.64404785  0.61909316  0.36788245    -0.07900
C1676       C  0.66419522  0.63940645  0.39237323     0.04100
C1677       C  0.63953284  0.63733049  0.41415419    -0.15200
C1678       C  0.59508194  0.61598894  0.41082894    -0.08500
C1679       C  0.58030731  0.57609298  0.33851474     0.05000
C1680       C  0.56135557  0.59318632  0.32313901    -0.09600
C1681       C  0.54002405  0.57219301  0.29889226     0.00000
C1682       C  0.53759435  0.53356590  0.29013526    -0.00100
C1683       C  0.55951563  0.51857626  0.30461883    -0.13200
C1684       C  0.58077114  0.53939959  0.32880036     0.00300
C1685       C  0.52071077  0.59086928  0.28392545     0.39600
C1686       C  0.60078623  0.52134655  0.34393034     0.36300
C1687       C  0.52899678  0.57317004  0.38322644     0.36000
C1688       C  0.71020678  0.66414996  0.39411651     0.36700
N1689       N  0.01047088  0.10994524  0.27089870    -0.44000
N1690       N  0.61696896  0.50707165  0.35607402    -0.44500
N1691       N  0.74704278  0.68415972  0.39540942    -0.41900
N1692       N  0.49222015  0.55506628  0.38074560    -0.43300
H1693       H  0.57627779  0.61499109  0.42750148     0.12900
H1694       H  0.66285185  0.62065504  0.35107132     0.09400
H1695       H  0.56242662  0.62236679  0.33044253     0.10400
H1696       H  0.55835728  0.48944900  0.29770196     0.16200
C1697       C  0.98878329  0.81714242  0.36047503    -0.02000
C1698       C  0.00845965  0.85909722  0.35207651     0.06600
C1699       C  0.53881884  0.89408338  0.36984391    -0.07900
C1700       C  0.54680798  0.88742268  0.39596779     0.04100
C1701       C  0.02393041  0.84526122  0.40474886    -0.15200
C1702       C  0.99649513  0.81065771  0.38654591    -0.08500
C1703       C  0.99580162  0.86818233  0.32607100     0.05000
C1704       C  0.95289131  0.85535251  0.32063925    -0.09600
C1705       C  0.94077204  0.86880336  0.29840420     0.00000
C1706       C  0.97186506  0.89645512  0.28165006    -0.00100
C1707       C  0.51353043  0.90557447  0.28536491    -0.13200
C1708       C  0.52669864  0.89268586  0.30741857     0.00300
C1709       C  0.89628486  0.85337794  0.29282514     0.39600
C1710       C  0.57114170  0.90627000  0.31107414     0.36300
C1711       C  0.95976586  0.78027098  0.34292306     0.36000
C1712       C  0.57443204  0.92414274  0.41399546     0.36700
N1713       N  0.86048174  0.84017501  0.28805507    -0.44000
N1714       N  0.60681160  0.91736679  0.31410758    -0.44500
N1715       N  0.59668978  0.95361896  0.42840939    -0.41900
N1716       N  0.93644066  0.75071412  0.32889277    -0.43300
H1717       H  0.97951625  0.77840369  0.39311216     0.12900
H1718       H  0.55323410  0.92656598  0.36385173     0.09400
H1719       H  0.92903688  0.83621105  0.33434794     0.10400
H1720       H  0.53693553  0.92605276  0.27189065     0.16200
C1721       C  0.83194278  0.49839361  0.13638544    -0.02000
C1722       C  0.83551753  0.96306263  0.14596921     0.06600
C1723       C  0.83541955  0.93410529  0.12632514    -0.07900
C1724       C  0.82886290  0.93758134  0.09936464     0.04100
C1725       C  0.82243537  0.97074591  0.09187091    -0.15200
C1726       C  0.82645103  0.50269494  0.10951086    -0.08500
C1727       C  0.85669670  0.96785744  0.17210828     0.05000
C1728       C  0.83531120  0.94009726  0.19205144    -0.09600
C1729       C  0.85768109  0.94177426  0.21550110     0.00000
C1730       C  0.90212187  0.97071265  0.21846498    -0.00100
C1731       C  0.92573904  0.49759711  0.19594926    -0.13200
C1732       C  0.90417663  0.49840793  0.17345378     0.00300
C1733       C  0.83476846  0.91233172  0.23531641     0.39600
C1734       C  0.92856483  0.52693167  0.15340411     0.36300
C1735       C  0.83227940  0.52900813  0.15608052     0.36000
C1736       C  0.83203403  0.90878706  0.07988964     0.36700
N1737       N  0.81596538  0.88882956  0.25120712    -0.44000
N1738       N  0.94793494  0.54962971  0.13729597    -0.44500
N1739       N  0.83464331  0.88564043  0.06437208    -0.41900
N1740       N  0.83252696  0.55356445  0.17183329    -0.43300
H1741       H  0.82131149  0.52816318  0.10411797     0.12900
H1742       H  0.84342084  0.91067146  0.13195019     0.09400
H1743       H  0.80163943  0.91650767  0.18896520     0.10400
H1744       H  0.95973148  0.51777954  0.19711456     0.16200
C1745       C  0.50929756  0.88723751  0.18588045    -0.02000
C1746       C  0.96928543  0.85762041  0.16949992     0.06600
C1747       C  0.92997947  0.84385745  0.18074963    -0.07900
C1748       C  0.92808222  0.86148209  0.20569838     0.04100
C1749       C  0.96598536  0.89274875  0.21978958    -0.15200
C1750       C  0.50625684  0.90396511  0.21081706    -0.08500
C1751       C  0.97011554  0.84620197  0.14101297     0.05000
C1752       C  0.49416699  0.82468374  0.13523048    -0.09600
C1753       C  0.99374628  0.81413953  0.10714308     0.00000
C1754       C  0.97915103  0.82987326  0.08713135    -0.00100
C1755       C  0.95898839  0.85261013  0.09418704    -0.13200
C1756       C  0.95491647  0.86143878  0.12102035     0.00300
C1757       C  0.52051653  0.79270418  0.10281184     0.39600
C1758       C  0.93722116  0.88809196  0.12765560     0.36300
C1759       C  0.55102907  0.90338763  0.17560833     0.36000
C1760       C  0.88685191  0.84936760  0.21537245     0.36700
N1761       N  0.53780496  0.77408057  0.09829425    -0.44000
N1762       N  0.92331834  0.90962941  0.13314603    -0.44500
N1763       N  0.85333785  0.83869582  0.22275267    -0.41900
N1764       N  0.58448144  0.91635924  0.16739996    -0.43300
H1765       H  0.53488584  0.92868365  0.22164399     0.12900
H1766       H  0.90075795  0.82158923  0.16923847     0.09400
H1767       H  0.50710381  0.81462321  0.15081693     0.10400
H1768       H  0.94774905  0.86461943  0.07881220     0.16200
C1769       C  0.60739056  0.57848371  0.14090127    -0.02000
C1770       C  0.61237344  0.60630975  0.16318412     0.06600
C1771       C  0.63377382  0.65069371  0.16064689    -0.07900
C1772       C  0.64946656  0.66742417  0.13622154     0.04100
C1773       C  0.64437637  0.63952762  0.11393976    -0.15200
C1774       C  0.62397594  0.59528115  0.11668620    -0.08500
C1775       C  0.59247835  0.58895872  0.18851478     0.05000
C1776       C  0.60519267  0.56477705  0.20254765    -0.09600
C1777       C  0.58096597  0.54032100  0.22302281     0.00000
C1778       C  0.54364972  0.54013124  0.22960432    -0.00100
C1779       C  0.53473399  0.56903822  0.21825139    -0.13200
C1780       C  0.55790815  0.59241993  0.19727051     0.00300
C1781       C  0.59465433  0.51538317  0.23664840     0.39600
C1782       C  0.54282741  0.61600671  0.18328727     0.36300
C1783       C  0.58309027  0.53244752  0.14201727     0.36000
C1784       C  0.67158523  0.71333773  0.13467187     0.36700
N1785       N  0.60355031  0.99305361  0.24861622    -0.44000
N1786       N  0.53059670  0.63460763  0.17188394    -0.44500
N1787       N  0.68937280  0.75012244  0.13335331    -0.41900
N1788       N  0.56321778  0.49561193  0.14303019    -0.43300
H1789       H  0.61973551  0.57366455  0.09960919     0.12900
H1790       H  0.63764288  0.67219654  0.17769658     0.09400
H1791       H  0.63266673  0.56317072  0.19650307     0.10400
H1792       H  0.50753752  0.57092964  0.22443373     0.16200
C1793       C  0.88099891  0.84162492  0.86131969    -0.02000
C1794       C  0.85887000  0.84899237  0.84118130     0.06600
C1795       C  0.81523376  0.83343240  0.84325975    -0.07900
C1796       C  0.79388327  0.81206969  0.86541768     0.04100
C1797       C  0.81642859  0.80635862  0.88619704    -0.15200
C1798       C  0.85972569  0.82040853  0.88352791    -0.08500
C1799       C  0.88155351  0.87578591  0.81900328     0.05000
C1800       C  0.90024641  0.86148046  0.80009104    -0.09600
C1801       C  0.92551319  0.88815582  0.78063923     0.00000
C1802       C  0.93223925  0.92988062  0.77994335    -0.00100
C1803       C  0.91305132  0.94368683  0.79870700    -0.13200
C1804       C  0.88744957  0.91703666  0.81781661     0.00300
C1805       C  0.94658334  0.87308981  0.76308850     0.39600
C1806       C  0.86927965  0.93359321  0.83681852     0.36300
C1807       C  0.92594298  0.85710302  0.86011262     0.36000
C1808       C  0.74858195  0.79500236  0.86588456     0.36700
N1809       N  0.96343218  0.86067782  0.74918556    -0.44000
N1810       N  0.85459641  0.94681315  0.85197291    -0.44500
N1811       N  0.71221855  0.78099426  0.86624430    -0.41900
N1812       N  0.96192760  0.86947921  0.85899842    -0.43300
H1813       H  0.87735411  0.81594837  0.89921146     0.12900
H1814       H  0.79795435  0.83847123  0.82763354     0.09400
H1815       H  0.89616123  0.82992110  0.80108633     0.10400
H1816       H  0.91898717  0.97598012  0.79888833     0.16200
C1817       C  0.55787376  0.63965459  0.81030428    -0.02000
C1818       C  0.52303651  0.63454234  0.82466042     0.06600
C1819       C  0.97782075  0.60525592  0.81281648    -0.07900
C1820       C  0.97161300  0.57952573  0.78952995     0.04100
C1821       C  0.50896908  0.58036527  0.77914475    -0.15200
C1822       C  0.55055445  0.61170213  0.78802620    -0.08500
C1823       C  0.52826516  0.65300489  0.85233219     0.05000
C1824       C  0.01127619  0.67759026  0.85986168    -0.09600
C1825       C  0.01009161  0.68893157  0.88664431     0.00000
C1826       C  0.52097729  0.67291412  0.90589115    -0.00100
C1827       C  0.54385071  0.65281042  0.89934706    -0.13200
C1828       C  0.54704248  0.64207689  0.87280812     0.00300
C1829       C  0.99763673  0.71994280  0.89335152     0.39600
C1830       C  0.56669136  0.61687238  0.86739729     0.36300
C1831       C  0.60117555  0.67169684  0.81883872     0.36000
C1832       C  0.92898811  0.55119145  0.77821924     0.36700
N1833       N  0.98786295  0.74491550  0.89884326    -0.44000
N1834       N  0.58269927  0.59694090  0.86309322    -0.44500
N1835       N  0.89214670  0.02323573  0.77110880    -0.41900
N1836       N  0.63586868  0.69733153  0.82571697    -0.43300
H1837       H  0.57726190  0.61264708  0.77851553     0.12900
H1838       H  0.95048056  0.60222852  0.82280729     0.09400
H1839       H  0.00196205  0.69126913  0.84449485     0.10400
H1840       H  0.55691711  0.64304692  0.91503789     0.16200
C1841       C  0.60294468  0.99815945  0.87835607    -0.02000
C1842       C  0.63183501  0.50386573  0.85433578     0.06600
C1843       C  0.67215917  0.50905887  0.85870219    -0.07900
C1844       C  0.68752786  0.51013116  0.88453998     0.04100
C1845       C  0.66267645  0.50687964  0.90638361    -0.15200
C1846       C  0.61869551  0.99899812  0.90395255    -0.08500
C1847       C  0.61542448  0.50119884  0.82682353     0.05000
C1848       C  0.63326930  0.53830501  0.81283640    -0.09600
C1849       C  0.61264243  0.53947595  0.78953368     0.00000
C1850       C  0.57337110  0.50325057  0.78041261    -0.00100
C1851       C  0.55710176  0.96638186  0.79396738    -0.13200
C1852       C  0.57833883  0.96513382  0.81682448     0.00300
C1853       C  0.63142963  0.57865086  0.77621827     0.39600
C1854       C  0.56385188  0.92445921  0.82789830     0.36300
C1855       C  0.55978460  0.98912130  0.87496975     0.36000
C1856       C  0.72830960  0.51346170  0.88816887     0.36700
N1857       N  0.64744136  0.61023818  0.76565063    -0.44000
N1858       N  0.55265632  0.89192285  0.83674537    -0.44500
N1859       N  0.76097079  0.51605102  0.89106787    -0.41900
N1860       N  0.52509001  0.98148225  0.87219445    -0.43300
H1861       H  0.59841390  0.99266131  0.92063524     0.12900
H1862       H  0.69110160  0.51119018  0.84187872     0.09400
H1863       H  0.66191046  0.56706776  0.82097211     0.10400
H1864       H  0.52860166  0.93743626  0.78590114     0.16200
C1865       C  0.92845381  0.88694429  0.67339583    -0.02000
C1866       C  0.88654844  0.87795187  0.66891989     0.06600
C1867       C  0.86653552  0.88716273  0.68959805    -0.07900
C1868       C  0.88924653  0.90910558  0.71362176     0.04100
C1869       C  0.93304007  0.92331283  0.71656706    -0.15200
C1870       C  0.95128334  0.90963922  0.69699202    -0.08500
C1871       C  0.86597263  0.86462185  0.64175649     0.05000
C1872       C  0.85200812  0.82309531  0.63060757    -0.09600
C1873       C  0.83879850  0.81186790  0.60363369     0.00000
C1874       C  0.83927113  0.84260855  0.58744163    -0.00100
C1875       C  0.85113744  0.88335154  0.59900561    -0.13200
C1876       C  0.86497758  0.89473259  0.62580269     0.00300
C1877       C  0.82489041  0.76865184  0.59315237     0.39600
C1878       C  0.88105909  0.93855179  0.63579330     0.36300
C1879       C  0.94987005  0.87638174  0.65320265     0.36000
C1880       C  0.86750795  0.91918278  0.73374768     0.36700
N1881       N  0.81376583  0.73404287  0.58474446    -0.44000
N1882       N  0.89417251  0.97397025  0.64321902    -0.44500
N1883       N  0.84916087  0.92660460  0.74958576    -0.41900
N1884       N  0.96696573  0.86773875  0.63707571    -0.43300
H1885       H  0.98462167  0.91957301  0.69927471     0.12900
H1886       H  0.83388752  0.87930409  0.68638495     0.09400
H1887       H  0.85282403  0.79992517  0.64280395     0.10400
H1888       H  0.85188528  0.90719683  0.58671772     0.16200
C1889       C  0.54949311  0.63771171  0.69575273    -0.02000
C1890       C  0.01541672  0.62269706  0.67421247     0.06600
C1891       C  0.97598146  0.58499679  0.67608328    -0.07900
C1892       C  0.96820614  0.56006910  0.69765191     0.04100
C1893       C  0.00070740  0.57161408  0.71726817    -0.15200
C1894       C  0.54177677  0.61205548  0.71712130    -0.08500
C1895       C  0.02380177  0.64475406  0.64920572     0.05000
C1896       C  0.05591387  0.64701177  0.63316947    -0.09600
C1897       C  0.06054629  0.66159410  0.60756318     0.00000
C1898       C  0.03245651  0.67379791  0.59768428    -0.00100
C1899       C  0.00133574  0.67283810  0.61408746    -0.13200
C1900       C  0.99693632  0.65869682  0.63964522     0.00300
C1901       C  0.09231174  0.66103984  0.59122517     0.39600
C1902       C  0.46930996  0.66208359  0.65741394     0.36300
C1903       C  0.58921611  0.67805072  0.69581521     0.36000
C1904       C  0.92601021  0.52382144  0.69970615     0.36700
N1905       N  0.11767912  0.66041031  0.57810318    -0.44000
N1906       N  0.44377817  0.66221907  0.67060707    -0.44500
N1907       N  0.89133564  0.49600767  0.70112985    -0.41900
N1908       N  0.62088331  0.71061500  0.69598965    -0.43300
H1909       H  0.56660720  0.62179197  0.73248970     0.12900
H1910       H  0.95146877  0.57444067  0.66029948     0.09400
H1911       H  0.07615884  0.63558980  0.64022483     0.10400
H1912       H  0.98003675  0.68286821  0.60677938     0.16200
C1913       C  0.62005969  0.56321499  0.68632054    -0.02000
C1914       C  0.62104120  0.03267277  0.67448007     0.06600
C1915       C  0.60479448  0.99283854  0.68539142    -0.07900
C1916       C  0.58236587  0.98448969  0.70873950     0.04100
C1917       C  0.57615483  0.01628651  0.72114672    -0.15200
C1918       C  0.59826475  0.55530228  0.70966644    -0.08500
C1919       C  0.63683457  0.03794379  0.64735510     0.05000
C1920       C  0.68024563  0.06541021  0.64382205    -0.09600
C1921       C  0.69616987  0.07057690  0.61837788     0.00000
C1922       C  0.66830177  0.04700763  0.59598988    -0.00100
C1923       C  0.62331548  0.51727676  0.59723987    -0.13200
C1924       C  0.60803471  0.51260278  0.62279037     0.00300
C1925       C  0.74140347  0.09874131  0.61619489     0.39600
C1926       C  0.56275278  0.48622171  0.62579773     0.36300
C1927       C  0.63724893  0.60486694  0.67603441     0.36000
C1928       C  0.56452112  0.94282151  0.71897095     0.36700
N1929       N  0.77764750  0.12160457  0.61457480    -0.44000
N1930       N  0.52644440  0.46552824  0.62822675    -0.44500
N1931       N  0.05246068  0.90828894  0.72698809    -0.41900
N1932       N  0.65111479  0.63821083  0.66775180    -0.43300
H1933       H  0.59455616  0.58028057  0.71942111     0.12900
H1934       H  0.60769360  0.96766542  0.67490788     0.09400
H1935       H  0.70176589  0.08243787  0.66105698     0.10400
H1936       H  0.60133102  0.49917063  0.58036733     0.16200
loop_ 
_geom_bond_atom_site_label_1 
_geom_bond_atom_site_label_2 
_geom_bond_distance 
_geom_bond_site_symmetry_2 
_ccdc_geom_bond_type 
C1            H2   1.112       .  S
C1            C7   1.540       .  S
C1            C5   1.536       .  S
C1         C1458   1.537   1_445  S
C3            H4   1.113       .  S
C3            C9   1.542       .  S
C3          C976   1.535       .  S
C3          C494   1.531       .  S
C5          C398   1.478       .  S
C5          C492   1.364       .  D
C6         C1453   1.537       .  S
C6          C350   1.488       .  S
C6            C9   1.377       .  D
C7          C369   1.467       .  S
C7          C978   1.363   1_455  D
C8          C971   1.535   1_455  S
C8          C465   1.472       .  S
C8          C489   1.365       .  D
C9          C417   1.485       .  S
C10         C487   1.532       .  S
C10         C441   1.485       .  S
C10         C975   1.363       .  D
O11         Ni17   1.951       .  S
O11          C32   1.280       .  A
O12         Ni35   1.959       .  S
O12          C21   1.277       .  A
O13         Ni17   1.910       .  S
O13         Ni35   1.928   1_556  S
O13         Ni29   1.926   1_556  S
O13          H36   0.966       .  S
C14          O31   1.276       .  A
C14          O23   1.275       .  A
C14          C71   1.455       .  S
O15         Ni34   1.905       .  S
O15          C21   1.264       .  A
O16         Ni34   1.927       .  S
O16          C18   1.273   1_554  A
Ni17         O20   1.926       .  S
Ni17         O22   1.926       .  S
C18          O28   1.273       .  A
C18          C77   1.480       .  S
O19         Ni35   1.922   1_556  S
O19          C25   1.271       .  A
O20          C25   1.279       .  A
C21          C95   1.476       .  S
O22          C24   1.269   1_556  A
O23         Ni34   1.909       .  S
C24          O30   1.274       .  A
C24          C83   1.466       .  S
C25          C89   1.468       .  S
H26          O27   0.966       .  S
O27         Ni35   1.919       .  S
O27         Ni29   1.885       .  S
O27         Ni34   1.884       .  S
O28         Ni29   1.934   1_556  S
Ni29         O33   1.916   1_554  S
Ni29         O31   1.912       .  S
O30         Ni35   1.924       .  S
C32          O33   1.269       .  A
C32          C41   1.489       .  S
C37         C345   1.489       .  S
C37          N38   1.356       .  A
C37          N42   1.359       .  A
N38          C39   1.357       .  A
C39          C53   1.489       .  S
C39          N40   1.371       .  A
N40          C41   1.373       .  A
C41          N42   1.361       .  A
O43         Ni49   1.908       .  S
O43          C64   1.268       .  A
O44         Ni67   1.925   1_556  S
O44          C53   1.273       .  A
O45         Ni49   1.886       .  S
O45         Ni67   1.882       .  S
O45         Ni61   1.918       .  S
O45          H68   0.966       .  S
C46          O63   1.274       .  A
C46          O55   1.278       .  A
C46          C79   1.466       .  S
O47         Ni66   1.945       .  S
O47          C53   1.279       .  A
O48         Ni66   1.927       .  S
O48          C50   1.269   1_556  A
Ni49         O52   1.916       .  S
Ni49         O54   1.923       .  S
C50          O60   1.271       .  A
C50          C97   1.464       .  S
O51         Ni67   1.916       .  S
O51          C57   1.278       .  A
O52          C57   1.276       .  A
O54          C56   1.271   1_554  A
O55         Ni66   1.929       .  S
C56          O62   1.277       .  A
C56          C91   1.480       .  S
C57          C73   1.462       .  S
H58          O59   0.966       .  S
O59         Ni67   1.928   1_556  S
O59         Ni61   1.921   1_556  S
O59         Ni66   1.914       .  S
O60         Ni61   1.916       .  S
Ni61         O65   1.952       .  S
Ni61         O63   1.920   1_554  S
O62         Ni67   1.935   1_556  S
C64          O65   1.276       .  A
C64          C85   1.474       .  S
C69         C321   1.474       .  S
C69          N70   1.350       .  A
C69          N74   1.357       .  A
N70          C71   1.355       .  A
C71          N72   1.355       .  A
N72          C73   1.358       .  A
C73          N74   1.362       .  A
C75         C393   1.468       .  S
C75          N76   1.361       .  A
C75         N564   1.355   1_545  A
N76          C77   1.363       .  A
C77          N78   1.361   1_545  A
N78         C563   1.361       .  A
C79          N80   1.354       .  A
C79         N562   1.361       .  A
N80         C559   1.356       .  A
C81         C302   1.466       .  S
C81          N82   1.351       .  A
C81        N1054   1.350       .  A
N82          C83   1.356       .  A
C83          N84   1.372       .  A
N84        C1053   1.366       .  A
C85          N86   1.354       .  A
C85        N1052   1.366   1_455  A
N86        C1049   1.349   1_455  A
C87         C374   1.459       .  S
C87          N92   1.355       .  A
C87        N1056   1.348   1_455  A
N88          C89   1.349       .  A
N88        C1055   1.350       .  A
C89        N1058   1.367       .  A
N90          C91   1.368   1_655  A
N90        C1057   1.368       .  A
C91          N92   1.358       .  A
C93         C273   1.481       .  S
C93          N98   1.350       .  A
C93         N578   1.355       .  A
N94          C95   1.360       .  A
N94         C577   1.355   1_545  A
C95         N580   1.365   1_545  A
N96          C97   1.369       .  A
N96         C579   1.365       .  A
C97          N98   1.355       .  A
O99        Ni105   1.915       .  S
O99         C120   1.267       .  A
O100       Ni123   1.913       .  S
O100        C109   1.270       .  A
O101       Ni105   1.914       .  S
O101       Ni123   1.916       .  S
O101       Ni117   1.934       .  S
O101        H124   0.966       .  S
C102        O119   1.279       .  A
C102        O111   1.280       .  A
C102        C179   1.452       .  S
O103       Ni122   1.924       .  S
O103        C109   1.277       .  A
O104       Ni122   1.927       .  S
O104        C106   1.267       .  A
Ni105       O108   1.918       .  S
Ni105       O110   1.938       .  S
C106        O116   1.274       .  A
C106        C129   1.481       .  S
O107       Ni123   1.921       .  S
O107        C113   1.276       .  A
O108        C113   1.279       .  A
C109        C173   1.476       .  S
O110        C112   1.269       .  A
O111       Ni122   1.912       .  S
C112        O118   1.267       .  A
C112        C183   1.484       .  S
C113        C165   1.469       .  S
H114        O115   0.966       .  S
O115       Ni123   1.920       .  S
O115       Ni117   1.896       .  S
O115       Ni122   1.887       .  S
O116       Ni117   1.934       .  S
Ni117       O121   1.924       .  S
Ni117       O119   1.935       .  S
O118       Ni123   1.917       .  S
C120        O121   1.268       .  A
C120        C161   1.459       .  S
C125        C422   1.480       .  S
C125        N126   1.362       .  A
C125        N130   1.358       .  A
N126        C127   1.359       .  A
C127        C144   1.485       .  S
C127        N128   1.367       .  A
N128        C129   1.366       .  A
C129        N130   1.354       .  A
O131       Ni137   1.930       .  S
O131        C152   1.277       .  A
O132       Ni155   1.934       .  S
O132        C141   1.273       .  A
O133       Ni137   1.894       .  S
O133       Ni155   1.902       .  S
O133       Ni149   1.920       .  S
O133        H156   0.966       .  S
C134        O151   1.275       .  A
C134        O143   1.277       .  A
C134        C159   1.464       .  S
O135       Ni154   1.914       .  S
O135        C141   1.266       .  A
O136       Ni154   1.939       .  S
O136        C138   1.271       .  A
Ni137       O140   1.913       .  S
Ni137       O142   1.928       .  S
C138        O148   1.267       .  A
C138        C171   1.485       .  S
O139       Ni155   1.938       .  S
O139        C145   1.281       .  A
O140        C145   1.280       .  A
C141        C167   1.467       .  S
O142        C144   1.268       .  A
O143       Ni154   1.916       .  S
C144        O150   1.273       .  A
C145        C177   1.454       .  S
H146        O147   0.966       .  S
O147       Ni155   1.936       .  S
O147       Ni149   1.917       .  S
O147       Ni154   1.910       .  S
O148       Ni149   1.917       .  S
Ni149       O153   1.911       .  S
Ni149       O151   1.917       .  S
O150       Ni155   1.935       .  S
C152        O153   1.269       .  A
C152        C185   1.480       .  S
C157        C470   1.477       .  S
C157        N158   1.351       .  A
C157        N646   1.352       .  A
N158        C159   1.355       .  A
C159        N160   1.360       .  A
N160        C645   1.360       .  A
C161        N162   1.357       .  A
C161        N644   1.361       .  A
N162        C641   1.353       .  A
C163        C446   1.478       .  S
C163        N164   1.350       .  A
C163       N1136   1.356       .  A
N164        C165   1.354       .  A
C165        N166   1.363       .  A
N166       C1135   1.364       .  A
C167        N168   1.365       .  A
C167       N1134   1.363       .  A
N168       C1131   1.357       .  A
C169        C249   1.485       .  S
C169        N174   1.347       .  A
C169       N1138   1.359       .  A
N170        C171   1.368       .  A
N170       C1137   1.358       .  A
C171       N1140   1.370       .  A
N172        C173   1.368       .  A
N172       C1139   1.371       .  A
C173        N174   1.353       .  A
C175        C225   1.461       .  S
C175        N176   1.353       .  A
C175        N180   1.351       .  A
N176        C177   1.354       .  A
C177        N178   1.359       .  A
N178        C179   1.359       .  A
C179        N180   1.351       .  A
C181        C201   1.482       .  S
C181        N186   1.349       .  A
C181        N666   1.356       .  A
N182        C183   1.365       .  A
N182        C665   1.354       .  A
C183        N668   1.372       .  A
N184        C185   1.369       .  A
N184        C667   1.372       .  A
C185        N186   1.354       .  A
C187        H188   1.112       .  S
C187        C193   1.548       .  S
C187        C192   1.539       .  S
C187       C1643   1.535       .  S
C189        H190   1.112       .  S
C189        C195   1.533       .  S
C189        C196   1.538       .  S
C189       C1646   1.535       .  S
C191       C1639   1.534   1_445  S
C191        C230   1.467       .  S
C191        C194   1.360       .  D
C192        C254   1.492       .  S
C192        C195   1.365       .  D
C193        C206   1.490       .  S
C193        C196   1.379       .  D
C194       C1641   1.536   1_445  S
C194        C326   1.480       .  S
C195        C297   1.466       .  S
C196        C278   1.491       .  S
C197        C198   1.408       .  A
C197        C202   1.400       .  A
C197        C211   1.444       .  S
C198        C203   1.486       .  S
C198        C683   1.405       .  A
C199        C200   1.404       .  A
C199        C682   1.405       .  A
C199        H218   1.084       .  S
C200        C685   1.411       .  A
C200        C212   1.444       .  S
C201        C202   1.407       .  A
C201        C684   1.411       .  A
C202        H217   1.085       .  S
C203        C204   1.403       .  A
C203        C208   1.410       .  A
C204        C205   1.407       .  A
C204        H219   1.084       .  S
C205        C206   1.416       .  A
C205        C209   1.441       .  S
C206        C207   1.400       .  A
C207        C208   1.394       .  A
C207        H704   1.078       .  S
C208        C694   1.445       .  S
C209        N213   1.157       .  T
C210        C692   1.445       .  S
C210        N214   1.157       .  T
C211        N216   1.157       .  T
C212        N215   1.157       .  T
H220        C691   1.079       .  S
C221        C222   1.411       .  A
C221        C226   1.394       .  A
C221        C235   1.444       .  S
C222        C227   1.467       .  S
C222        C223   1.397       .  A
C223        C224   1.391       .  A
C223        H242   1.085       .  S
C224        C225   1.414       .  A
C224        C236   1.445       .  S
C225        C226   1.400       .  A
C226        H241   1.085       .  S
C227        C228   1.399       .  A
C227        C232   1.407       .  A
C228        C229   1.394       .  A
C228        H243   1.085       .  S
C229        C230   1.409       .  A
C229        C233   1.439       .  S
C230        C231   1.398       .  A
C231        C232   1.390       .  A
C231        H244   1.078   1_545  S
C232        C234   1.444       .  S
C233       N1689   1.156       .  T
C234        N238   1.157       .  T
C235        N240   1.157       .  T
C236        N239   1.157       .  T
N237       C1685   1.156       .  T
C245        C246   1.410       .  A
C245        C250   1.402       .  A
C245        C259   1.444       .  S
C246        C251   1.496       .  S
C246       C1215   1.408       .  A
C247        C248   1.407       .  A
C247       C1214   1.408       .  A
C247        H266   1.084       .  S
C248       C1217   1.410       .  A
C248        C260   1.443       .  S
C249        C250   1.407       .  A
C249       C1216   1.410       .  A
C250        H265   1.085       .  S
C251        C252   1.407       .  A
C251       C1224   1.411       .  A
C252        C253   1.404       .  A
C252        H267   1.084       .  S
C253        C254   1.408       .  A
C253        C257   1.441       .  S
C254       C1223   1.405       .  A
C255        C256   1.405       .  A
C255       C1222   1.405   1_455  A
C255        H268   1.083       .  S
C256       C1219   1.411       .  A
C256        C258   1.443       .  S
C257        N261   1.157       .  T
C258        N262   1.157       .  T
C259        N264   1.157       .  T
C260        N263   1.157       .  T
C269        C274   1.397   1_565  A
C269        C754   1.407       .  A
C269        C283   1.444   1_565  S
C270        C275   1.476       .  S
C270        C271   1.402       .  A
C270        C753   1.407       .  A
C271        C272   1.400       .  A
C271        H290   1.085       .  S
C272        C273   1.415       .  A
C272        C284   1.444       .  S
C273        C758   1.407       .  A
C274        C757   1.407   1_545  A
C274        H289   1.084       .  S
C275        C276   1.406       .  A
C275        C764   1.403       .  A
C276        C277   1.410       .  A
C276        H291   1.084       .  S
C277        C278   1.414       .  A
C277        C281   1.441       .  S
C278        C763   1.402       .  A
C279        C280   1.382       .  A
C279        C762   1.403       .  A
C279        H292   1.072   1_565  S
C280        C759   1.402       .  A
C280        C282   1.448   1_565  S
C281        N285   1.157       .  T
C282        N286   1.157       .  T
C283        N288   1.157       .  T
C284        N287   1.157       .  T
C293        C298   1.394       .  A
C293       C1262   1.409   1_455  A
C293        C307   1.444       .  S
C294        C299   1.473       .  S
C294        C295   1.401       .  A
C294       C1261   1.409       .  A
C295        C296   1.398       .  A
C295        H314   1.085       .  S
C296        C297   1.408       .  A
C296        C308   1.442       .  S
C297       C1266   1.397       .  A
C298       C1265   1.398   1_455  A
C298        H313   1.080       .  S
C299        C304   1.413       .  A
C299       C1268   1.397       .  A
C300       C1267   1.397       .  A
C300       C1269   1.393       .  A
C300        H315   1.085   1_655  S
C301        C302   1.413       .  A
C301       C1268   1.392       .  A
C301       C1273   1.445       .  S
C302        C303   1.401       .  A
C303        C304   1.401       .  A
C303        H316   1.085       .  S
C304        C306   1.445       .  S
C305       C1269   1.445   1_455  S
C305        N309   1.157       .  T
C306        N310   1.158       .  T
C307        N312   1.157       .  T
C308        N311   1.157       .  T
C317        C318   1.412       .  A
C317        C322   1.399       .  A
C317        C331   1.445       .  S
C318        C323   1.485       .  S
C318        C319   1.404       .  A
C319        C320   1.400       .  A
C319        H338   1.085       .  S
C320        C321   1.410       .  A
C320        C332   1.443       .  S
C321        C322   1.403       .  A
C322        H337   1.085       .  S
C323        C324   1.406       .  A
C323        C328   1.411       .  A
C324        C325   1.402       .  A
C324        H339   1.084       .  S
C325        C326   1.408       .  A
C325        C329   1.441       .  S
C326        C327   1.398       .  A
C327        C328   1.395       .  A
C327        H340   1.081       .  S
C328        C330   1.444       .  S
C329        N817   1.157   1_545  T
C330        N334   1.157       .  T
C331        N336   1.158   1_545  T
C332        N335   1.157       .  T
N333        C813   1.157       .  T
C341        C342   1.410       .  A
C341        C346   1.402       .  A
C341        C355   1.443       .  S
C342        C347   1.488       .  S
C342        C343   1.402       .  A
C343        C344   1.402       .  A
C343        H362   1.085       .  S
C344        C345   1.418       .  A
C344        C356   1.444       .  S
C345        C346   1.406       .  A
C346        H361   1.085       .  S
C347        C348   1.406       .  A
C347        C352   1.408       .  A
C348        C349   1.406       .  A
C348        H363   1.084       .  S
C349        C350   1.412       .  A
C349        C353   1.442       .  S
C350        C351   1.403       .  A
C351        C352   1.395       .  A
C351        H364   1.079       .  S
C352        C354   1.445       .  S
C353        N357   1.157       .  T
C354        N358   1.157       .  T
C355        N360   1.157       .  T
C356        N359   1.157       .  T
C365        C366   1.408       .  A
C365        C370   1.393       .  A
C365        C379   1.445       .  S
C366        C371   1.475       .  S
C366       C1335   1.404   1_455  A
C367        C368   1.398       .  A
C367       C1334   1.405       .  A
C367        H386   1.085       .  S
C368       C1337   1.405       .  A
C368        C380   1.442       .  S
C369        C370   1.399       .  A
C369       C1336   1.404   1_455  A
C370        H385   1.079       .  S
C371        C376   1.415       .  A
C371       C1340   1.400       .  A
C372        C373   1.396       .  A
C372       C1339   1.400       .  A
C372        H387   1.085       .  S
C373       C1342   1.412       .  A
C373        C377   1.445       .  S
C374        C375   1.396       .  A
C374       C1341   1.412   1_455  A
C375        C376   1.393       .  A
C375        H388   1.085       .  S
C376        C378   1.445       .  S
C377        N381   1.157       .  T
C378        N382   1.157       .  T
C379        N384   1.157       .  T
C380        N867   1.157       .  T
N383        C864   1.157       .  T
C389        C394   1.398       .  A
C389        C874   1.415       .  A
C389        C403   1.445       .  S
C390        C395   1.482       .  S
C390        C391   1.403       .  A
C390        C873   1.414   1_545  A
C391        C392   1.403       .  A
C391        H410   1.084       .  S
C392        C393   1.410       .  A
C392        C404   1.444       .  S
C393        C878   1.399   1_545  A
C394        C877   1.399       .  A
C394        H409   1.085       .  S
C395        C396   1.402       .  A
C395        C884   1.410   1_545  A
C396        C397   1.402       .  A
C396        H411   1.085       .  S
C397        C398   1.409       .  A
C397        C401   1.441       .  S
C398        C883   1.402   1_545  A
C399        C400   1.395       .  A
C399        C882   1.400       .  A
C399        H412   1.084       .  S
C400        C879   1.411       .  A
C400        C402   1.444       .  S
C401        N405   1.157       .  T
C402        N406   1.157       .  T
C403        N408   1.157       .  T
C404        N407   1.157       .  T
C413        C414   1.408       .  A
C413        C418   1.394       .  A
C413        C427   1.445       .  S
C414        C419   1.484       .  S
C414        C415   1.405       .  A
C415        C416   1.406       .  A
C415        H434   1.084       .  S
C416        C417   1.411       .  A
C416        C428   1.442       .  S
C417        C418   1.403       .  A
C418        H433   1.083       .  S
C419        C420   1.402       .  A
C419        C424   1.412       .  A
C420        C421   1.400       .  A
C420        H435   1.085       .  S
C421        C422   1.416       .  A
C421        C425   1.445       .  S
C422        C423   1.401       .  A
C423        C424   1.399       .  A
C423        H436   1.085       .  S
C424        C426   1.443       .  S
C425        N429   1.158       .  T
C426        N430   1.157       .  T
C427        N432   1.157       .  T
C428        N431   1.157       .  T
C437        C442   1.404       .  A
C437       C1406   1.411       .  A
C437        C451   1.443       .  S
C438        C443   1.486       .  S
C438        C439   1.403       .  A
C438       C1405   1.409       .  A
C439        C440   1.398       .  A
C439        H458   1.085       .  S
C440        C441   1.406       .  A
C440        C452   1.440       .  S
C441       C1410   1.404       .  A
C442       C1409   1.405       .  A
C442        H457   1.082       .  S
C443        C444   1.407       .  A
C443        C448   1.408       .  A
C444        C445   1.406       .  A
C444        H459   1.084       .  S
C445        C446   1.409       .  A
C445        C449   1.443       .  S
C446        C447   1.405       .  A
C447        C448   1.397       .  A
C447        H460   1.085       .  S
C448       C1418   1.444       .  S
C449        N453   1.157       .  T
C450       C1416   1.444   1_655  S
C450        N454   1.157       .  T
C451        N456   1.157       .  T
C452        N455   1.156   1_545  T
C461        C466   1.392       .  A
C461        C946   1.404       .  A
C461        C475   1.444       .  S
C462        C467   1.477       .  S
C462        C463   1.406       .  A
C462        C945   1.406       .  A
C463        C464   1.402       .  A
C463        H482   1.084       .  S
C464        C465   1.405       .  A
C464        C476   1.442       .  S
C465        C950   1.400       .  A
C466        C949   1.400       .  A
C466        H481   1.078       .  S
C467        C468   1.400       .  A
C467        C956   1.409       .  A
C468        C469   1.398       .  A
C468        H483   1.085       .  S
C469        C470   1.417       .  A
C469        C473   1.444       .  S
C470        C955   1.404       .  A
C471        C472   1.397       .  A
C471        C954   1.404       .  A
C471        H484   1.085       .  S
C472        C951   1.408       .  A
C472        C474   1.446   1_545  S
C473        N477   1.157       .  T
C474        N478   1.157       .  T
C475        N480   1.157       .  T
C476       N1447   1.157       .  T
N479       C1444   1.157       .  T
C485        H486   1.112       .  S
C485        C491   1.537       .  S
C485        C974   1.537   1_455  S
C485        C489   1.535       .  S
C487        H488   1.112   1_545  S
C487        C493   1.542   1_545  S
C487       C1460   1.535       .  S
C489        C882   1.475       .  S
C490        C969   1.536   1_565  S
C490        C834   1.486       .  S
C490        C493   1.376       .  D
C491        C853   1.467       .  S
C491       C1462   1.362   1_455  D
C492       C1455   1.535   1_545  S
C492        C949   1.470       .  S
C493        C901   1.485       .  S
C494        C925   1.484       .  S
C494       C1459   1.363       .  D
O495       Ni501   1.946       .  S
O495        C516   1.279       .  A
O496       Ni519   1.957       .  S
O496        C505   1.278       .  A
O497       Ni501   1.911       .  S
O497       Ni519   1.923   1_556  S
O497       Ni513   1.929       .  S
O497        H520   0.966       .  S
C498        O515   1.278       .  A
C498        O507   1.275       .  A
C498        C555   1.463       .  S
O499       Ni518   1.906       .  S
O499        C505   1.264       .  A
O500       Ni518   1.926       .  S
O500        C502   1.273   1_554  A
Ni501       O504   1.926       .  S
Ni501       O506   1.928       .  S
C502        O512   1.273       .  A
C502        C561   1.480       .  S
O503       Ni519   1.928   1_556  S
O503        C509   1.274       .  A
O504        C509   1.279       .  A
C505        C579   1.476       .  S
O506        C508   1.269   1_556  A
O507       Ni518   1.915       .  S
C508        O514   1.273       .  A
C508        C567   1.467       .  S
C509        C573   1.470       .  S
H510        O511   0.966       .  S
O511       Ni519   1.924       .  S
O511       Ni513   1.884   1_554  S
O511       Ni518   1.885       .  S
O512       Ni513   1.933       .  S
Ni513       O517   1.913       .  S
Ni513       O515   1.918   1_556  S
O514       Ni519   1.923       .  S
C516        O517   1.269       .  A
C516        C525   1.482       .  S
C521        C829   1.483       .  S
C521        N522   1.356       .  A
C521        N526   1.356       .  A
N522        C523   1.358       .  A
C523        C537   1.483       .  S
C523        N524   1.370       .  A
N524        C525   1.371       .  A
C525        N526   1.358       .  A
O527       Ni533   1.913       .  S
O527        C548   1.269       .  A
O528       Ni551   1.918   1_556  S
O528        C537   1.271       .  A
O529       Ni533   1.886       .  S
O529       Ni551   1.883       .  S
O529       Ni545   1.918       .  S
O529        H552   0.966       .  S
C530        O547   1.273       .  A
C530        O539   1.277       .  A
C530        C563   1.464       .  S
O531       Ni550   1.943       .  S
O531        C537   1.278       .  A
O532       Ni550   1.929       .  S
O532        C534   1.269   1_556  A
Ni533       O536   1.921       .  S
Ni533       O538   1.918       .  S
C534        O544   1.270       .  A
C534        C581   1.463       .  S
O535       Ni551   1.914       .  S
O535        C541   1.277       .  A
O536        C541   1.278       .  A
O538        C540   1.270   1_554  A
O539       Ni550   1.925       .  S
C540        O546   1.274       .  A
C540        C575   1.474       .  S
C541        C557   1.463       .  S
H542        O543   0.966       .  S
O543       Ni551   1.926   1_556  S
O543       Ni545   1.918   1_556  S
O543       Ni550   1.911       .  S
O544       Ni545   1.913       .  S
Ni545       O549   1.947       .  S
Ni545       O547   1.920   1_554  S
O546       Ni551   1.928   1_556  S
C548        O549   1.275       .  A
C548        C569   1.473       .  S
C553        C805   1.476       .  S
C553        N554   1.354       .  A
C553        N558   1.356       .  A
N554        C555   1.358       .  A
C555        N556   1.357       .  A
N556        C557   1.358       .  A
C557        N558   1.359       .  A
C559        C877   1.469       .  S
C559        N560   1.361       .  A
N560        C561   1.362       .  A
C561        N562   1.360       .  A
C563        N564   1.353       .  A
C565        C786   1.467       .  S
C565        N566   1.351       .  A
C565       N1538   1.349       .  A
N566        C567   1.357       .  A
C567        N568   1.372       .  A
N568       C1537   1.366       .  A
C569       N1536   1.365   1_455  A
C569        N570   1.353       .  A
N570       C1533   1.350   1_455  A
C571        C858   1.460       .  S
C571       N1540   1.352   1_455  A
C571        N576   1.354       .  A
N572       C1539   1.354       .  A
N572        C573   1.353       .  A
C573       N1542   1.366       .  A
N574       C1541   1.364       .  A
N574        C575   1.364   1_655  A
C575        N576   1.358       .  A
C577        C757   1.482       .  S
C577        N582   1.349       .  A
N578        C579   1.360       .  A
N580        C581   1.369       .  A
C581        N582   1.354       .  A
O583       Ni589   1.911       .  S
O583        C604   1.265       .  A
O584       Ni607   1.911       .  S
O584        C593   1.269       .  A
O585       Ni589   1.911       .  S
O585       Ni607   1.912       .  S
O585       Ni601   1.928       .  S
O585        H608   0.966       .  S
C586        O603   1.277       .  A
C586        O595   1.281       .  A
C586        C663   1.451       .  S
O587       Ni606   1.925       .  S
O587        C593   1.278       .  A
O588       Ni606   1.923       .  S
O588        C590   1.266       .  A
Ni589       O592   1.911       .  S
Ni589       O594   1.937       .  S
C590        O600   1.273       .  A
C590        C613   1.478       .  S
O591       Ni607   1.922       .  S
O591        C597   1.278       .  A
O592        C597   1.277       .  A
C593        C657   1.473       .  S
O594        C596   1.270       .  A
O595       Ni606   1.917       .  S
C596        O602   1.268       .  A
C596        C667   1.485       .  S
C597        C649   1.465       .  S
H598        O599   0.966       .  S
O599       Ni607   1.922       .  S
O599       Ni601   1.896       .  S
O599       Ni606   1.887       .  S
O600       Ni601   1.932       .  S
Ni601       O605   1.919       .  S
Ni601       O603   1.929       .  S
O602       Ni607   1.920       .  S
C604        O605   1.265       .  A
C604        C645   1.453       .  S
C609        C906   1.476       .  S
C609        N610   1.362       .  A
C609        N614   1.357       .  A
N610        C611   1.359       .  A
C611        C628   1.484       .  S
C611        N612   1.366       .  A
N612        C613   1.365       .  A
C613        N614   1.353       .  A
O615       Ni621   1.927       .  S
O615        C636   1.277       .  A
O616       Ni639   1.922       .  S
O616        C625   1.269       .  A
O617       Ni621   1.890       .  S
O617       Ni639   1.900       .  S
O617       Ni633   1.921       .  S
O617        H640   0.966       .  S
C618        O635   1.276       .  A
C618        O627   1.278       .  A
C618        C643   1.467       .  S
O619       Ni638   1.915       .  S
O619        C625   1.266       .  A
O620       Ni638   1.941       .  S
O620        C622   1.272       .  A
Ni621       O624   1.914       .  S
Ni621       O626   1.929       .  S
C622        O632   1.267       .  A
C622        C655   1.489       .  S
O623       Ni639   1.939       .  S
O623        C629   1.281       .  A
O624        C629   1.279       .  A
C625        C651   1.458       .  S
O626        C628   1.268       .  A
O627       Ni638   1.919       .  S
C628        O634   1.273       .  A
C629        C661   1.455       .  S
H630        O631   0.966       .  S
O631       Ni639   1.935       .  S
O631       Ni633   1.915       .  S
O631       Ni638   1.912       .  S
O632       Ni633   1.920       .  S
Ni633       O637   1.910       .  S
Ni633       O635   1.918       .  S
O634       Ni639   1.935       .  S
C636        O637   1.269       .  A
C636        C669   1.478       .  S
C641        C954   1.474       .  S
C641        N642   1.352       .  A
N642        C643   1.356   1_545  A
C643        N644   1.362   1_565  A
C645        N646   1.357       .  A
C647        C930   1.476       .  S
C647        N648   1.351       .  A
C647       N1620   1.355       .  A
N648        C649   1.355       .  A
C649        N650   1.359       .  A
N650       C1619   1.361       .  A
C651       N1618   1.360       .  A
C651        N652   1.363       .  A
N652       C1615   1.355       .  A
C653        C733   1.483       .  S
C653       N1622   1.359       .  A
C653        N658   1.346       .  A
N654       C1621   1.359       .  A
N654        C655   1.371       .  A
C655       N1624   1.372       .  A
N656       C1623   1.371       .  A
N656        C657   1.367       .  A
C657        N658   1.350       .  A
C659        C709   1.457       .  S
C659        N660   1.354       .  A
C659        N664   1.350       .  A
N660        C661   1.355       .  A
C661        N662   1.359       .  A
N662        C663   1.358       .  A
C663        N664   1.348       .  A
C665        C685   1.482       .  S
C665        N670   1.348   1_545  A
N666        C667   1.366       .  A
N668        C669   1.370   1_545  A
C669        N670   1.355       .  A
C671        H672   1.112       .  S
C671        C677   1.547       .  S
C671        C676   1.540       .  S
C671       C1159   1.535   1_565  S
C673        H674   1.111       .  S
C673        C679   1.528       .  S
C673       C1162   1.535   1_565  S
C673        C680   1.541       .  S
C675       C1155   1.533   1_455  S
C675        C714   1.460       .  S
C675        C678   1.358       .  D
C676        C738   1.484       .  S
C676        C679   1.364       .  D
C677        C690   1.493       .  S
C677        C680   1.381       .  D
C678       C1157   1.533   1_455  S
C678        C810   1.479       .  S
C679        C781   1.470       .  S
C680        C762   1.492       .  S
C681        C682   1.408   1_565  A
C681        C686   1.401       .  A
C681        C695   1.444       .  S
C682        C687   1.487   1_545  S
C683        C684   1.405       .  A
C683        H702   1.085       .  S
C684        C696   1.443       .  S
C685        C686   1.406   1_545  A
C686        H701   1.085       .  S
C687        C688   1.403   1_565  A
C687        C692   1.409       .  A
C688        C689   1.408       .  A
C688        H703   1.084       .  S
C689        C690   1.416   1_545  A
C689        C693   1.441       .  S
C690        C691   1.401       .  A
C691        C692   1.395       .  A
C693        N697   1.157       .  T
C694        N698   1.157       .  T
C695        N700   1.157       .  T
C696        N699   1.157       .  T
C705        C706   1.410       .  A
C705        C710   1.394       .  A
C705        C719   1.445       .  S
C706        C711   1.460       .  S
C706        C707   1.395       .  A
C707        C708   1.388       .  A
C707        H726   1.085       .  S
C708        C709   1.414       .  A
C708        C720   1.445       .  S
C709        C710   1.399       .  A
C710        H725   1.085       .  S
C711        C712   1.399       .  A
C711        C716   1.406       .  A
C712        C713   1.391       .  A
C712        H727   1.085       .  S
C713        C714   1.406       .  A
C713        C717   1.439       .  S
C714        C715   1.397       .  A
C715        C716   1.388       .  A
C715        H728   1.076       .  S
C716        C718   1.445       .  S
C717       N1205   1.156       .  T
C718        N722   1.157       .  T
C719        N724   1.157   1_455  T
C720        N723   1.157       .  T
N721       C1201   1.156       .  T
C729        C730   1.410       .  A
C729        C734   1.399       .  A
C729        C743   1.444       .  S
C730        C735   1.494       .  S
C730       C1699   1.409       .  A
C731       C1698   1.410       .  A
C731        C732   1.407       .  A
C731        H750   1.084       .  S
C732       C1701   1.409       .  A
C732        C744   1.443       .  S
C733       C1700   1.409       .  A
C733        C734   1.407       .  A
C734        H749   1.085       .  S
C735        C736   1.408       .  A
C735       C1708   1.411       .  A
C736        C737   1.402       .  A
C736        H751   1.084       .  S
C737        C738   1.405       .  A
C737        C741   1.442       .  S
C738       C1707   1.402       .  A
C739       C1706   1.402   1_455  A
C739        C740   1.403       .  A
C739        H752   1.083       .  S
C740       C1703   1.411   1_455  A
C740        C742   1.443       .  S
C741        N745   1.157       .  T
C742        N746   1.157       .  T
C743        N748   1.157       .  T
C744        N747   1.157       .  T
C753        C758   1.398       .  A
C753        C767   1.444       .  S
C754        C759   1.474       .  S
C754        C755   1.401       .  A
C755        C756   1.399       .  A
C755        H774   1.085       .  S
C756        C757   1.416       .  A
C756        C768   1.444       .  S
C758        H773   1.085       .  S
C759        C760   1.405       .  A
C760        C761   1.410       .  A
C760        H775   1.084       .  S
C761        C762   1.416       .  A
C761        C765   1.441       .  S
C763        C764   1.384       .  A
C763        H776   1.072       .  S
C764        C766   1.447       .  S
C765        N769   1.157       .  T
C766        N770   1.157       .  T
C767        N772   1.157       .  T
C768        N771   1.157       .  T
C777       C1746   1.410   1_455  A
C777        C782   1.396       .  A
C777        C791   1.445       .  S
C778        C783   1.478       .  S
C778       C1745   1.411       .  A
C778        C779   1.402       .  A
C779        C780   1.397       .  A
C779        H798   1.085       .  S
C780        C781   1.408       .  A
C780        C792   1.442       .  S
C781       C1750   1.399       .  A
C782       C1749   1.398   1_455  A
C782        H797   1.078       .  S
C783       C1752   1.399       .  A
C783        C788   1.414       .  A
C784       C1751   1.398       .  A
C784       C1753   1.394       .  A
C784        H799   1.085   1_655  S
C785       C1752   1.395       .  A
C785        C786   1.414       .  A
C785       C1757   1.445       .  S
C786        C787   1.399       .  A
C787        C788   1.399       .  A
C787        H800   1.085       .  S
C788        C790   1.445       .  S
C789       C1753   1.445   1_455  S
C789        N793   1.157       .  T
C790        N794   1.157       .  T
C791        N796   1.157       .  T
C792        N795   1.157       .  T
C801        C802   1.412       .  A
C801        C806   1.400       .  A
C801        C815   1.445       .  S
C802        C807   1.484       .  S
C802        C803   1.403       .  A
C803        C804   1.400       .  A
C803        H822   1.085       .  S
C804        C805   1.412       .  A
C804        C816   1.444       .  S
C805        C806   1.403       .  A
C806        H821   1.085       .  S
C807        C808   1.406       .  A
C807        C812   1.410       .  A
C808        C809   1.401       .  A
C808        H823   1.085       .  S
C809        C810   1.407       .  A
C809        C813   1.441       .  S
C810        C811   1.399       .  A
C811        C812   1.396       .  A
C811        H824   1.083       .  S
C812        C814   1.444       .  S
C814        N818   1.157       .  T
C815        N820   1.157       .  T
C816        N819   1.157       .  T
C825        C826   1.411       .  A
C825        C830   1.401       .  A
C825        C839   1.444       .  S
C826        C831   1.486       .  S
C826        C827   1.403       .  A
C827        C828   1.401       .  A
C827        H846   1.085       .  S
C828        C829   1.414       .  A
C828        C840   1.444       .  S
C829        C830   1.405       .  A
C830        H845   1.085       .  S
C831        C832   1.406       .  A
C831        C836   1.408       .  A
C832        C833   1.406       .  A
C832        H847   1.084       .  S
C833        C834   1.411       .  A
C833        C837   1.441       .  S
C834        C835   1.402       .  A
C835        C836   1.395       .  A
C835        H848   1.080       .  S
C836        C838   1.445       .  S
C837        N841   1.157       .  T
C838        N842   1.157       .  T
C839        N844   1.157       .  T
C840        N843   1.157       .  T
C849        C850   1.407       .  A
C849        C854   1.394       .  A
C849        C863   1.444       .  S
C850        C855   1.473       .  S
C850       C1819   1.404   1_455  A
C851       C1818   1.405       .  A
C851        C852   1.395       .  A
C851        H870   1.085       .  S
C852       C1821   1.404       .  A
C852        C864   1.442       .  S
C853       C1820   1.404   1_455  A
C853        C854   1.399       .  A
C854        H869   1.080       .  S
C855       C1824   1.399       .  A
C855        C860   1.414       .  A
C856       C1823   1.402       .  A
C856        C857   1.396       .  A
C856        H871   1.085       .  S
C857       C1826   1.410       .  A
C857        C861   1.445       .  S
C858       C1825   1.410       .  A
C858        C859   1.397       .  A
C859        C860   1.395       .  A
C859        H872   1.085       .  S
C860        C862   1.445       .  S
C861        N865   1.157       .  T
C862        N866   1.157       .  T
C863        N868   1.157       .  T
C873        C878   1.398       .  A
C873        C887   1.445       .  S
C874        C879   1.486       .  S
C874        C875   1.404       .  A
C875        C876   1.402       .  A
C875        H894   1.084       .  S
C876        C877   1.409       .  A
C876        C888   1.443       .  S
C878        H893   1.085       .  S
C879        C880   1.405       .  A
C880        C881   1.403       .  A
C880        H895   1.084       .  S
C881        C882   1.408       .  A
C881        C885   1.441       .  S
C883        C884   1.397       .  A
C883        H896   1.084       .  S
C884        C886   1.444       .  S
C885        N889   1.157       .  T
C886        N890   1.157       .  T
C887        N892   1.157       .  T
C888        N891   1.157       .  T
C897        C898   1.407       .  A
C897        C902   1.394       .  A
C897        C911   1.445       .  S
C898        C903   1.480       .  S
C898        C899   1.403       .  A
C899        C900   1.405       .  A
C899        H918   1.084       .  S
C900        C901   1.412       .  A
C900        C912   1.442       .  S
C901        C902   1.404       .  A
C902        H917   1.083       .  S
C903        C904   1.401       .  A
C903        C908   1.412       .  A
C904        C905   1.400       .  A
C904        H919   1.085       .  S
C905        C906   1.416       .  A
C905        C909   1.445       .  S
C906        C907   1.400       .  A
C907        C908   1.397       .  A
C907        H920   1.085       .  S
C908        C910   1.443       .  S
C909        N913   1.158       .  T
C910        N914   1.156       .  T
C911        N916   1.157       .  T
C912        N915   1.157       .  T
C921       C1890   1.410       .  A
C921        C926   1.403       .  A
C921        C935   1.443       .  S
C922        C927   1.484       .  S
C922       C1889   1.410       .  A
C922        C923   1.401       .  A
C923        C924   1.395       .  A
C923        H942   1.085       .  S
C924        C925   1.406       .  A
C924        C936   1.439       .  S
C925       C1894   1.405       .  A
C926       C1893   1.404       .  A
C926        H941   1.083       .  S
C927        C928   1.407       .  A
C927        C932   1.409       .  A
C928        C929   1.404       .  A
C928        H943   1.084       .  S
C929        C930   1.409       .  A
C929        C933   1.443       .  S
C930        C931   1.404       .  A
C931        C932   1.396       .  A
C931        H944   1.085       .  S
C932       C1902   1.445       .  S
C933        N937   1.157       .  T
C934       C1900   1.445       .  S
C934        N938   1.157       .  T
C935        N940   1.157       .  T
C936        N939   1.156       .  T
C945        C950   1.392       .  A
C945        C959   1.445       .  S
C946        C951   1.473       .  S
C946        C947   1.405   1_545  A
C947        C948   1.401       .  A
C947        H966   1.084       .  S
C948        C949   1.405   1_565  A
C948        C960   1.441       .  S
C950        H965   1.079       .  S
C951        C952   1.398       .  A
C952        C953   1.398       .  A
C952        H967   1.085       .  S
C953        C954   1.416       .  A
C953        C957   1.444       .  S
C955        C956   1.396       .  A
C955        H968   1.085       .  S
C956        C958   1.444       .  S
C957        N961   1.157       .  T
C958        N962   1.157       .  T
C959        N964   1.157       .  T
C960       N1931   1.157       .  T
N963       C1928   1.157       .  T
C969        H970   1.112       .  S
C969        C975   1.539       .  S
C969        C973   1.536       .  S
C971        H972   1.112       .  S
C971        C977   1.543       .  S
C971       C1462   1.531       .  S
C973       C1366   1.478       .  S
C973       C1460   1.365       .  D
C974       C1318   1.489       .  S
C974        C977   1.377       .  D
C975       C1337   1.468       .  S
C976       C1433   1.471       .  S
C976       C1457   1.365       .  D
C977       C1385   1.485       .  S
C978       C1455   1.531   1_645  S
C978       C1409   1.487   1_655  S
O979       Ni985   1.948       .  S
O979       C1000   1.279       .  A
O980      Ni1003   1.955       .  S
O980        C989   1.276       .  A
O981       Ni985   1.907       .  S
O981      Ni1003   1.928   1_556  S
O981       Ni997   1.925   1_556  S
O981       H1004   0.966       .  S
C982        O999   1.277       .  A
C982        O991   1.276       .  A
C982       C1039   1.458       .  S
O983      Ni1002   1.907       .  S
O983        C989   1.265       .  A
O984      Ni1002   1.925       .  S
O984        C986   1.272   1_554  A
Ni985       O988   1.922       .  S
Ni985       O990   1.926       .  S
C986        O996   1.273       .  A
C986       C1045   1.481       .  S
O987      Ni1003   1.922   1_556  S
O987        C993   1.270       .  A
O988        C993   1.278       .  A
C989       C1063   1.475       .  S
O990        C992   1.269   1_556  A
O991      Ni1002   1.913       .  S
C992        O998   1.275       .  A
C992       C1051   1.466       .  S
C993       C1057   1.466       .  S
H994        O995   0.966       .  S
O995      Ni1003   1.919       .  S
O995       Ni997   1.887       .  S
O995      Ni1002   1.886       .  S
O996       Ni997   1.935   1_556  S
Ni997      O1001   1.919   1_554  S
Ni997       O999   1.913       .  S
O998      Ni1003   1.925       .  S
C1000      O1001   1.271       .  A
C1000      C1009   1.489       .  S
C1005      C1313   1.492       .  S
C1005      N1006   1.357       .  A
C1005      N1010   1.360       .  A
N1006      C1007   1.358       .  A
C1007      C1021   1.488       .  S
C1007      N1008   1.370       .  A
N1008      C1009   1.372       .  A
C1009      N1010   1.362       .  A
O1011     Ni1017   1.911       .  S
O1011      C1032   1.269       .  A
O1012     Ni1035   1.927   1_556  S
O1012      C1021   1.274       .  A
O1013     Ni1017   1.887       .  S
O1013     Ni1035   1.884       .  S
O1013     Ni1029   1.917       .  S
O1013      H1036   0.966       .  S
C1014      O1031   1.273       .  A
C1014      O1023   1.277       .  A
C1014      C1047   1.464       .  S
O1015     Ni1034   1.942       .  S
O1015      C1021   1.278       .  A
O1016     Ni1034   1.926       .  S
O1016      C1018   1.269   1_556  A
Ni1017     O1020   1.919       .  S
Ni1017     O1022   1.922       .  S
C1018      O1028   1.271       .  A
C1018      C1065   1.463       .  S
O1019     Ni1035   1.918       .  S
O1019      C1025   1.279       .  A
O1020      C1025   1.276       .  A
O1022      C1024   1.271   1_554  A
O1023     Ni1034   1.927       .  S
C1024      O1030   1.276       .  A
C1024      C1059   1.479       .  S
C1025      C1041   1.464       .  S
H1026      O1027   0.966       .  S
O1027     Ni1035   1.929   1_556  S
O1027     Ni1029   1.921   1_556  S
O1027     Ni1034   1.913       .  S
O1028     Ni1029   1.917       .  S
Ni1029     O1033   1.950       .  S
Ni1029     O1031   1.917   1_554  S
O1030     Ni1035   1.933   1_556  S
C1032      O1033   1.276       .  A
C1032      C1053   1.475       .  S
C1037      C1289   1.480       .  S
C1037      N1038   1.352       .  A
C1037      N1042   1.359       .  A
N1038      C1039   1.355       .  A
C1039      N1040   1.355       .  A
N1040      C1041   1.358       .  A
C1041      N1042   1.363       .  A
C1043      C1361   1.468       .  S
C1043      N1044   1.361       .  A
C1043      N1532   1.356   1_545  A
N1044      C1045   1.362       .  A
C1045      N1046   1.361   1_545  A
N1046      C1531   1.361       .  A
C1047      N1530   1.361       .  A
C1047      N1048   1.353       .  A
N1048      C1527   1.356       .  A
C1049      C1270   1.462       .  S
C1049      N1050   1.350       .  A
N1050      C1051   1.356       .  A
C1051      N1052   1.372       .  A
C1053      N1054   1.354       .  A
C1055      C1342   1.460       .  S
C1055      N1060   1.355       .  A
N1056      C1057   1.348       .  A
N1058      C1059   1.368       .  A
C1059      N1060   1.358       .  A
C1061      C1241   1.478       .  S
C1061      N1546   1.354       .  A
C1061      N1066   1.351       .  A
N1062      C1545   1.354   1_545  A
N1062      C1063   1.357       .  A
C1063      N1548   1.364   1_545  A
N1064      C1547   1.364       .  A
N1064      C1065   1.369       .  A
C1065      N1066   1.355       .  A
O1067     Ni1073   1.915       .  S
O1067      C1088   1.266       .  A
O1068     Ni1091   1.912       .  S
O1068      C1077   1.270       .  A
O1069     Ni1073   1.915       .  S
O1069     Ni1091   1.916       .  S
O1069     Ni1085   1.932       .  S
O1069      H1092   0.966       .  S
C1070      O1087   1.279       .  A
C1070      O1079   1.279       .  A
C1070      C1147   1.451       .  S
O1071     Ni1090   1.924       .  S
O1071      C1077   1.277       .  A
O1072     Ni1090   1.928       .  S
O1072      C1074   1.267       .  A
Ni1073     O1076   1.917       .  S
Ni1073     O1078   1.937       .  S
C1074      O1084   1.273       .  A
C1074      C1097   1.482       .  S
O1075     Ni1091   1.921       .  S
O1075      C1081   1.277       .  A
O1076      C1081   1.278       .  A
C1077      C1141   1.476       .  S
O1078      C1080   1.269       .  A
O1079     Ni1090   1.912       .  S
C1080      O1086   1.266       .  A
C1080      C1151   1.483       .  S
C1081      C1133   1.468       .  S
H1082      O1083   0.966       .  S
O1083     Ni1091   1.920       .  S
O1083     Ni1085   1.897       .  S
O1083     Ni1090   1.888       .  S
O1084     Ni1085   1.933       .  S
Ni1085     O1089   1.923       .  S
Ni1085     O1087   1.934       .  S
O1086     Ni1091   1.914       .  S
C1088      O1089   1.268       .  A
C1088      C1129   1.458       .  S
C1093      C1390   1.481       .  S
C1093      N1094   1.362       .  A
C1093      N1098   1.358       .  A
N1094      C1095   1.359       .  A
C1095      C1112   1.485       .  S
C1095      N1096   1.367       .  A
N1096      C1097   1.366       .  A
C1097      N1098   1.354       .  A
O1099     Ni1105   1.927       .  S
O1099      C1120   1.276       .  A
O1100     Ni1123   1.933       .  S
O1100      C1109   1.272       .  A
O1101     Ni1105   1.893       .  S
O1101     Ni1123   1.902       .  S
O1101     Ni1117   1.920       .  S
O1101      H1124   0.966       .  S
C1102      O1119   1.276       .  A
C1102      O1111   1.277       .  A
C1102      C1127   1.463       .  S
O1103     Ni1122   1.914       .  S
O1103      C1109   1.266       .  A
O1104     Ni1122   1.939       .  S
O1104      C1106   1.271       .  A
Ni1105     O1108   1.911       .  S
Ni1105     O1110   1.929       .  S
C1106      O1116   1.267       .  A
C1106      C1139   1.487       .  S
O1107     Ni1123   1.937       .  S
O1107      C1113   1.280       .  A
O1108      C1113   1.279       .  A
C1109      C1135   1.466       .  S
O1110      C1112   1.268       .  A
O1111     Ni1122   1.913       .  S
C1112      O1118   1.273       .  A
C1113      C1145   1.453       .  S
H1114      O1115   0.966       .  S
O1115     Ni1123   1.935       .  S
O1115     Ni1117   1.917       .  S
O1115     Ni1122   1.911       .  S
O1116     Ni1117   1.919       .  S
Ni1117     O1121   1.912       .  S
Ni1117     O1119   1.918       .  S
O1118     Ni1123   1.936       .  S
C1120      O1121   1.270       .  A
C1120      C1153   1.478       .  S
C1125      C1438   1.476       .  S
C1125      N1126   1.351       .  A
C1125      N1614   1.352       .  A
N1126      C1127   1.356       .  A
C1127      N1128   1.359       .  A
N1128      C1613   1.359       .  A
C1129      N1612   1.360       .  A
C1129      N1130   1.358       .  A
N1130      C1609   1.355       .  A
C1131      C1414   1.481       .  S
C1131      N1132   1.350       .  A
N1132      C1133   1.354   1_455  A
C1133      N1134   1.362   1_655  A
C1135      N1136   1.365       .  A
C1137      C1217   1.484       .  S
C1137      N1142   1.348   1_455  A
N1138      C1139   1.369       .  A
N1140      C1141   1.367   1_455  A
C1141      N1142   1.354       .  A
C1143      C1193   1.460       .  S
C1143      N1144   1.352       .  A
C1143      N1148   1.351       .  A
N1144      C1145   1.352       .  A
C1145      N1146   1.359       .  A
N1146      C1147   1.359       .  A
C1147      N1148   1.351       .  A
C1149      C1169   1.484       .  S
C1149      N1634   1.356       .  A
C1149      N1154   1.350       .  A
N1150      C1633   1.354       .  A
N1150      C1151   1.364       .  A
C1151      N1636   1.371       .  A
N1152      C1635   1.371       .  A
N1152      C1153   1.367       .  A
C1153      N1154   1.354       .  A
C1155      H1156   1.112       .  S
C1155      C1161   1.549       .  S
C1155      C1160   1.538       .  S
C1157      H1158   1.112       .  S
C1157      C1163   1.531       .  S
C1157      C1164   1.538       .  S
C1159      C1198   1.466       .  S
C1159      C1162   1.360       .  D
C1160      C1222   1.490       .  S
C1160      C1163   1.364       .  D
C1161      C1174   1.489       .  S
C1161      C1164   1.380       .  D
C1162      C1294   1.481       .  S
C1163      C1265   1.465       .  S
C1164      C1246   1.492       .  S
C1165      C1166   1.408       .  A
C1165      C1170   1.398       .  A
C1165      C1179   1.444       .  S
C1166      C1171   1.487       .  S
C1166      C1651   1.406       .  A
C1167      C1650   1.404       .  A
C1167      C1168   1.404       .  A
C1167      H1186   1.084       .  S
C1168      C1653   1.412       .  A
C1168      C1180   1.444       .  S
C1169      C1652   1.412       .  A
C1169      C1170   1.407       .  A
C1170      H1185   1.085       .  S
C1171      C1172   1.404       .  A
C1171      C1176   1.410       .  A
C1172      C1173   1.408       .  A
C1172      H1187   1.084       .  S
C1173      C1174   1.416       .  A
C1173      C1177   1.441       .  S
C1174      C1175   1.399       .  A
C1175      C1176   1.392       .  A
C1175      H1672   1.077       .  S
C1176      C1662   1.445       .  S
C1177      N1181   1.158       .  T
C1178      C1660   1.445       .  S
C1178      N1182   1.157       .  T
C1179      N1184   1.157       .  T
C1180      N1183   1.157       .  T
H1188      C1659   1.079       .  S
C1189      C1190   1.410       .  A
C1189      C1194   1.392       .  A
C1189      C1203   1.445       .  S
C1190      C1195   1.465       .  S
C1190      C1191   1.397       .  A
C1191      C1192   1.391       .  A
C1191      H1210   1.085       .  S
C1192      C1193   1.414       .  A
C1192      C1204   1.445       .  S
C1193      C1194   1.400       .  A
C1194      H1209   1.085       .  S
C1195      C1196   1.399       .  A
C1195      C1200   1.406       .  A
C1196      C1197   1.394       .  A
C1196      H1211   1.085       .  S
C1197      C1198   1.409       .  A
C1197      C1201   1.439       .  S
C1198      C1199   1.398       .  A
C1199      C1200   1.389       .  A
C1199      H1212   1.077   1_545  S
C1200      C1202   1.445       .  S
C1202      N1206   1.157       .  T
C1203      N1208   1.157       .  T
C1204      N1207   1.157       .  T
C1213      C1214   1.410   1_655  A
C1213      C1218   1.402   1_655  A
C1213      C1227   1.444       .  S
C1214      C1219   1.494       .  S
C1215      C1216   1.407       .  A
C1215      H1234   1.083       .  S
C1216      C1228   1.443       .  S
C1217      C1218   1.406       .  A
C1218      H1233   1.085   1_455  S
C1219      C1220   1.406   1_455  A
C1220      C1221   1.403       .  A
C1220      H1235   1.085       .  S
C1221      C1222   1.407       .  A
C1221      C1225   1.441       .  S
C1223      C1224   1.406       .  A
C1223      H1236   1.083       .  S
C1224      C1226   1.443       .  S
C1225      N1229   1.157       .  T
C1226      N1230   1.157       .  T
C1227      N1232   1.157       .  T
C1228      N1231   1.157       .  T
C1237      C1722   1.406       .  A
C1237      C1242   1.396       .  A
C1237      C1251   1.444   1_565  S
C1238      C1243   1.474       .  S
C1238      C1721   1.407       .  A
C1238      C1239   1.402       .  A
C1239      C1240   1.400       .  A
C1239      H1258   1.085       .  S
C1240      C1241   1.413       .  A
C1240      C1252   1.444       .  S
C1241      C1726   1.407       .  A
C1242      C1725   1.407       .  A
C1242      H1257   1.085   1_565  S
C1243      C1244   1.405       .  A
C1243      C1732   1.401       .  A
C1244      C1245   1.410       .  A
C1244      H1259   1.084       .  S
C1245      C1246   1.415       .  A
C1245      C1249   1.441       .  S
C1246      C1731   1.403       .  A
C1247      C1730   1.400       .  A
C1247      C1248   1.383       .  A
C1247      H1260   1.072   1_565  S
C1248      C1727   1.403       .  A
C1248      C1250   1.447   1_565  S
C1249      N1253   1.157       .  T
C1250      N1254   1.157       .  T
C1251      N1256   1.157       .  T
C1252      N1255   1.157       .  T
C1261      C1266   1.393       .  A
C1261      C1275   1.444       .  S
C1262      C1267   1.472       .  S
C1262      C1263   1.400       .  A
C1263      C1264   1.396       .  A
C1263      H1282   1.085       .  S
C1264      C1265   1.407       .  A
C1264      C1276   1.442       .  S
C1266      H1281   1.079       .  S
C1267      C1272   1.413       .  A
C1268      H1283   1.085       .  S
C1269      C1270   1.412       .  A
C1270      C1271   1.399       .  A
C1271      C1272   1.399       .  A
C1271      H1284   1.085       .  S
C1272      C1274   1.445       .  S
C1273      N1277   1.157       .  T
C1274      N1278   1.157       .  T
C1275      N1280   1.157       .  T
C1276      N1279   1.157       .  T
C1285      C1286   1.412       .  A
C1285      C1290   1.399       .  A
C1285      C1299   1.445       .  S
C1286      C1291   1.488       .  S
C1286      C1287   1.405       .  A
C1287      C1288   1.401       .  A
C1287      H1306   1.085       .  S
C1288      C1289   1.412       .  A
C1288      C1300   1.443       .  S
C1289      C1290   1.404       .  A
C1290      H1305   1.085       .  S
C1291      C1292   1.407       .  A
C1291      C1296   1.411       .  A
C1292      C1293   1.403       .  A
C1292      H1307   1.084       .  S
C1293      C1294   1.408       .  A
C1293      C1297   1.442       .  S
C1294      C1295   1.397       .  A
C1295      C1296   1.395       .  A
C1295      H1308   1.082       .  S
C1296      C1298   1.444       .  S
C1297      N1785   1.157   1_545  T
C1298      N1302   1.157       .  T
C1299      N1304   1.157   1_545  T
C1300      N1303   1.157       .  T
N1301      C1781   1.157       .  T
C1309      C1310   1.411       .  A
C1309      C1314   1.405       .  A
C1309      C1323   1.443       .  S
C1310      C1315   1.492       .  S
C1310      C1311   1.402       .  A
C1311      C1312   1.403       .  A
C1311      H1330   1.085       .  S
C1312      C1313   1.417       .  A
C1312      C1324   1.444       .  S
C1313      C1314   1.407       .  A
C1314      H1329   1.084       .  S
C1315      C1316   1.406       .  A
C1315      C1320   1.410       .  A
C1316      C1317   1.407       .  A
C1316      H1331   1.084       .  S
C1317      C1318   1.412       .  A
C1317      C1321   1.441       .  S
C1318      C1319   1.404       .  A
C1319      C1320   1.398       .  A
C1319      H1332   1.082       .  S
C1320      C1322   1.444       .  S
C1321      N1325   1.157       .  T
C1322      N1326   1.157       .  T
C1323      N1328   1.157       .  T
C1324      N1327   1.157       .  T
C1333      C1334   1.407       .  A
C1333      C1338   1.393       .  A
C1333      C1347   1.445       .  S
C1334      C1339   1.475       .  S
C1335      C1336   1.396       .  A
C1335      H1354   1.085       .  S
C1336      C1348   1.442       .  S
C1337      C1338   1.398       .  A
C1338      H1353   1.078       .  S
C1339      C1344   1.416       .  A
C1340      C1341   1.395   1_455  A
C1340      H1355   1.085   1_455  S
C1341      C1345   1.446       .  S
C1342      C1343   1.396       .  A
C1343      C1344   1.394       .  A
C1343      H1356   1.085       .  S
C1344      C1346   1.445       .  S
C1345      N1349   1.157       .  T
C1346      N1350   1.157       .  T
C1347      N1352   1.157       .  T
C1348      N1835   1.157       .  T
N1351      C1832   1.157       .  T
C1357      C1842   1.413       .  A
C1357      C1362   1.399       .  A
C1357      C1371   1.445       .  S
C1358      C1363   1.483       .  S
C1358      C1841   1.414   1_545  A
C1358      C1359   1.403       .  A
C1359      C1360   1.402       .  A
C1359      H1378   1.084       .  S
C1360      C1361   1.410       .  A
C1360      C1372   1.443       .  S
C1361      C1846   1.399   1_545  A
C1362      C1845   1.400       .  A
C1362      H1377   1.085       .  S
C1363      C1364   1.403       .  A
C1363      C1852   1.409   1_545  A
C1364      C1365   1.403       .  A
C1364      H1379   1.085       .  S
C1365      C1366   1.409       .  A
C1365      C1369   1.441       .  S
C1366      C1851   1.402   1_545  A
C1367      C1850   1.402       .  A
C1367      C1368   1.396       .  A
C1367      H1380   1.084       .  S
C1368      C1847   1.409       .  A
C1368      C1370   1.444       .  S
C1369      N1373   1.157       .  T
C1370      N1374   1.157       .  T
C1371      N1376   1.157       .  T
C1372      N1375   1.157       .  T
C1381      C1382   1.408       .  A
C1381      C1386   1.393       .  A
C1381      C1395   1.445       .  S
C1382      C1387   1.484       .  S
C1382      C1383   1.406       .  A
C1383      C1384   1.407       .  A
C1383      H1402   1.084       .  S
C1384      C1385   1.411       .  A
C1384      C1396   1.442       .  S
C1385      C1386   1.403       .  A
C1386      H1401   1.083       .  S
C1387      C1388   1.402       .  A
C1387      C1392   1.413       .  A
C1388      C1389   1.400       .  A
C1388      H1403   1.085       .  S
C1389      C1390   1.416       .  A
C1389      C1393   1.445       .  S
C1390      C1391   1.402       .  A
C1391      C1392   1.399       .  A
C1391      H1404   1.085       .  S
C1392      C1394   1.442       .  S
C1393      N1397   1.157       .  T
C1394      N1398   1.156       .  T
C1395      N1400   1.157       .  T
C1396      N1399   1.157       .  T
C1405      C1410   1.402       .  A
C1405      C1419   1.443       .  S
C1406      C1411   1.489       .  S
C1406      C1407   1.403   1_455  A
C1407      C1408   1.398       .  A
C1407      H1426   1.085       .  S
C1408      C1409   1.406   1_655  A
C1408      C1420   1.440       .  S
C1410      H1425   1.081       .  S
C1411      C1412   1.408       .  A
C1411      C1416   1.409       .  A
C1412      C1413   1.406       .  A
C1412      H1427   1.084       .  S
C1413      C1414   1.409       .  A
C1413      C1417   1.443       .  S
C1414      C1415   1.406       .  A
C1415      C1416   1.398       .  A
C1415      H1428   1.085   1_455  S
C1417      N1421   1.157       .  T
C1418      N1422   1.157       .  T
C1419      N1424   1.157       .  T
C1420      N1423   1.156   1_545  T
C1429      C1914   1.405       .  A
C1429      C1434   1.392       .  A
C1429      C1443   1.444       .  S
C1430      C1435   1.476       .  S
C1430      C1913   1.406       .  A
C1430      C1431   1.407       .  A
C1431      C1432   1.402       .  A
C1431      H1450   1.084       .  S
C1432      C1433   1.404       .  A
C1432      C1444   1.442       .  S
C1433      C1918   1.400       .  A
C1434      C1917   1.400       .  A
C1434      H1449   1.078       .  S
C1435      C1436   1.400       .  A
C1435      C1924   1.409       .  A
C1436      C1437   1.398       .  A
C1436      H1451   1.085       .  S
C1437      C1438   1.417       .  A
C1437      C1441   1.444       .  S
C1438      C1923   1.404       .  A
C1439      C1922   1.405       .  A
C1439      C1440   1.398       .  A
C1439      H1452   1.085       .  S
C1440      C1919   1.408       .  A
C1440      C1442   1.445   1_545  S
C1441      N1445   1.157       .  T
C1442      N1446   1.157       .  T
C1443      N1448   1.157       .  T
C1453      H1454   1.112       .  S
C1453      C1459   1.537       .  S
C1453      C1457   1.534       .  S
C1455      H1456   1.112       .  S
C1455      C1461   1.543   1_455  S
C1457      C1850   1.475       .  S
C1458      C1802   1.488       .  S
C1458      C1461   1.377       .  D
C1459      C1821   1.468       .  S
C1460      C1917   1.472       .  S
C1461      C1869   1.487       .  S
C1462      C1893   1.483   1_655  S
O1463     Ni1469   1.942       .  S
O1463      C1484   1.278       .  A
O1464     Ni1487   1.953       .  S
O1464      C1473   1.276       .  A
O1465     Ni1469   1.910       .  S
O1465     Ni1487   1.922   1_556  S
O1465     Ni1481   1.928       .  S
O1465      H1488   0.966       .  S
C1466      O1483   1.278       .  A
C1466      O1475   1.275       .  A
C1466      C1523   1.463       .  S
O1467     Ni1486   1.907       .  S
O1467      C1473   1.265       .  A
O1468     Ni1486   1.927       .  S
O1468      C1470   1.273   1_554  A
Ni1469     O1472   1.924       .  S
Ni1469     O1474   1.928       .  S
C1470      O1480   1.272       .  A
C1470      C1529   1.481       .  S
O1471     Ni1487   1.923   1_556  S
O1471      C1477   1.272       .  A
O1472      C1477   1.277       .  A
C1473      C1547   1.473       .  S
O1474      C1476   1.269   1_556  A
O1475     Ni1486   1.915       .  S
C1476      O1482   1.273       .  A
C1476      C1535   1.467       .  S
C1477      C1541   1.467       .  S
H1478      O1479   0.966       .  S
O1479     Ni1487   1.922       .  S
O1479     Ni1481   1.884   1_554  S
O1479     Ni1486   1.886       .  S
O1480     Ni1481   1.931       .  S
Ni1481     O1485   1.911       .  S
Ni1481     O1483   1.918   1_556  S
O1482     Ni1487   1.924       .  S
C1484      O1485   1.269       .  A
C1484      C1493   1.479       .  S
C1489      C1797   1.485       .  S
C1489      N1490   1.358       .  A
C1489      N1494   1.356       .  A
N1490      C1491   1.360       .  A
C1491      C1505   1.485       .  S
C1491      N1492   1.368       .  A
N1492      C1493   1.370       .  A
C1493      N1494   1.358       .  A
O1495     Ni1501   1.909       .  S
O1495      C1516   1.269       .  A
O1496     Ni1519   1.923       .  S
O1496      C1505   1.273       .  A
O1497     Ni1501   1.884       .  S
O1497     Ni1519   1.882   1_554  S
O1497     Ni1513   1.917       .  S
O1497      H1520   0.966       .  S
C1498      O1515   1.273       .  A
C1498      O1507   1.277       .  A
C1498      C1531   1.465       .  S
O1499     Ni1518   1.941       .  S
O1499      C1505   1.277       .  A
O1500     Ni1518   1.930       .  S
O1500      C1502   1.269   1_556  A
Ni1501     O1504   1.918       .  S
Ni1501     O1506   1.919       .  S
C1502      O1512   1.269       .  A
C1502      C1549   1.463       .  S
O1503     Ni1519   1.917   1_554  S
O1503      C1509   1.279       .  A
O1504      C1509   1.277       .  A
O1506      C1508   1.270   1_554  A
O1507     Ni1518   1.926       .  S
C1508      O1514   1.275       .  A
C1508      C1543   1.474       .  S
C1509      C1525   1.463       .  S
H1510      O1511   0.966       .  S
O1511     Ni1519   1.928       .  S
O1511     Ni1513   1.920   1_556  S
O1511     Ni1518   1.914       .  S
O1512     Ni1513   1.912       .  S
Ni1513     O1517   1.950       .  S
Ni1513     O1515   1.920   1_554  S
O1514     Ni1519   1.929       .  S
C1516      O1517   1.275       .  A
C1516      C1537   1.474       .  S
C1521      C1773   1.478       .  S
C1521      N1522   1.355       .  A
C1521      N1526   1.357       .  A
N1522      C1523   1.359       .  A
C1523      N1524   1.356       .  A
N1524      C1525   1.357       .  A
C1525      N1526   1.360       .  A
C1527      C1845   1.469       .  S
C1527      N1528   1.361       .  A
N1528      C1529   1.363       .  A
C1529      N1530   1.360       .  A
C1531      N1532   1.354       .  A
C1533      C1754   1.466       .  S
C1533      N1534   1.351       .  A
N1534      C1535   1.357       .  A
C1535      N1536   1.371       .  A
C1537      N1538   1.353       .  A
C1539      C1826   1.465       .  S
C1539      N1544   1.353       .  A
N1540      C1541   1.352       .  A
N1542      C1543   1.366       .  A
C1543      N1544   1.356       .  A
C1545      C1725   1.480       .  S
C1545      N1550   1.351       .  A
N1546      C1547   1.358       .  A
N1548      C1549   1.369       .  A
C1549      N1550   1.357       .  A
O1551     Ni1557   1.910       .  S
O1551      C1572   1.265       .  A
O1552     Ni1575   1.910       .  S
O1552      C1561   1.268       .  A
O1553     Ni1557   1.908       .  S
O1553     Ni1575   1.912       .  S
O1553     Ni1569   1.928       .  S
O1553      H1576   0.966       .  S
C1554      O1571   1.277       .  A
C1554      O1563   1.282       .  A
C1554      C1631   1.452       .  S
O1555     Ni1574   1.927       .  S
O1555      C1561   1.279       .  A
O1556     Ni1574   1.922       .  S
O1556      C1558   1.266       .  A
Ni1557     O1560   1.909       .  S
Ni1557     O1562   1.935       .  S
C1558      O1568   1.272       .  A
C1558      C1581   1.476       .  S
O1559     Ni1575   1.921       .  S
O1559      C1565   1.278       .  A
O1560      C1565   1.276       .  A
C1561      C1625   1.473       .  S
O1562      C1564   1.270       .  A
O1563     Ni1574   1.920       .  S
C1564      O1570   1.267       .  A
C1564      C1635   1.483       .  S
C1565      C1617   1.463       .  S
H1566      O1567   0.966       .  S
O1567     Ni1575   1.922       .  S
O1567     Ni1569   1.895       .  S
O1567     Ni1574   1.887       .  S
O1568     Ni1569   1.930       .  S
Ni1569     O1573   1.917       .  S
Ni1569     O1571   1.928       .  S
O1570     Ni1575   1.919       .  S
C1572      O1573   1.265       .  A
C1572      C1613   1.450       .  S
C1577      C1874   1.478       .  S
C1577      N1578   1.363       .  A
C1577      N1582   1.357       .  A
N1578      C1579   1.360       .  A
C1579      C1596   1.485       .  S
C1579      N1580   1.365       .  A
N1580      C1581   1.364       .  A
C1581      N1582   1.353       .  A
O1583     Ni1589   1.928       .  S
O1583      C1604   1.277       .  A
O1584     Ni1607   1.922       .  S
O1584      C1593   1.268       .  A
O1585     Ni1589   1.890       .  S
O1585     Ni1607   1.901       .  S
O1585     Ni1601   1.921       .  S
O1585      H1608   0.966       .  S
C1586      O1603   1.277       .  A
C1586      O1595   1.278       .  A
C1586      C1611   1.466       .  S
O1587     Ni1606   1.915       .  S
O1587      C1593   1.266       .  A
O1588     Ni1606   1.939       .  S
O1588      C1590   1.271       .  A
Ni1589     O1592   1.916       .  S
Ni1589     O1594   1.929       .  S
C1590      O1600   1.266       .  A
C1590      C1623   1.486       .  S
O1591     Ni1607   1.936       .  S
O1591      C1597   1.280       .  A
O1592      C1597   1.279       .  A
C1593      C1619   1.458       .  S
O1594      C1596   1.269       .  A
O1595     Ni1606   1.917       .  S
C1596      O1602   1.272       .  A
C1597      C1629   1.454       .  S
H1598      O1599   0.966       .  S
O1599     Ni1607   1.933       .  S
O1599     Ni1601   1.915       .  S
O1599     Ni1606   1.911       .  S
O1600     Ni1601   1.919       .  S
Ni1601     O1605   1.909       .  S
Ni1601     O1603   1.919       .  S
O1602     Ni1607   1.934       .  S
C1604      O1605   1.269       .  A
C1604      C1637   1.477       .  S
C1609      C1922   1.480       .  S
C1609      N1610   1.353       .  A
N1610      C1611   1.357   1_545  A
C1611      N1612   1.361   1_565  A
C1613      N1614   1.357       .  A
C1615      C1898   1.477       .  S
C1615      N1616   1.350   1_455  A
N1616      C1617   1.355       .  A
C1617      N1618   1.359   1_655  A
C1619      N1620   1.362       .  A
C1621      C1701   1.483       .  S
C1621      N1626   1.345   1_455  A
N1622      C1623   1.370       .  A
N1624      C1625   1.368   1_455  A
C1625      N1626   1.349       .  A
C1627      C1677   1.457       .  S
C1627      N1628   1.354       .  A
C1627      N1632   1.352       .  A
N1628      C1629   1.354       .  A
C1629      N1630   1.358       .  A
N1630      C1631   1.357       .  A
C1631      N1632   1.348       .  A
C1633      C1653   1.482       .  S
C1633      N1638   1.349   1_545  A
N1634      C1635   1.367       .  A
N1636      C1637   1.369   1_545  A
C1637      N1638   1.355       .  A
C1639      H1640   1.112       .  S
C1639      C1645   1.545       .  S
C1639      C1644   1.540       .  S
C1641      H1642   1.112       .  S
C1641      C1647   1.530       .  S
C1641      C1648   1.540       .  S
C1643      C1682   1.462       .  S
C1643      C1646   1.360       .  D
C1644      C1706   1.484       .  S
C1644      C1647   1.365       .  D
C1645      C1658   1.490       .  S
C1645      C1648   1.378       .  D
C1646      C1778   1.484       .  S
C1647      C1749   1.472       .  S
C1648      C1730   1.487       .  S
C1649      C1650   1.408   1_565  A
C1649      C1654   1.400       .  A
C1649      C1663   1.444       .  S
C1650      C1655   1.485   1_545  S
C1651      C1652   1.406       .  A
C1651      H1670   1.085       .  S
C1652      C1664   1.443       .  S
C1653      C1654   1.406   1_545  A
C1654      H1669   1.085       .  S
C1655      C1656   1.402   1_565  A
C1655      C1660   1.409       .  A
C1656      C1657   1.407       .  A
C1656      H1671   1.084       .  S
C1657      C1658   1.416   1_545  A
C1657      C1661   1.441       .  S
C1658      C1659   1.401       .  A
C1659      C1660   1.394       .  A
C1661      N1665   1.157       .  T
C1662      N1666   1.157       .  T
C1663      N1668   1.157       .  T
C1664      N1667   1.157       .  T
C1673      C1674   1.409       .  A
C1673      C1678   1.396       .  A
C1673      C1687   1.445       .  S
C1674      C1679   1.460       .  S
C1674      C1675   1.394       .  A
C1675      C1676   1.387       .  A
C1675      H1694   1.085       .  S
C1676      C1677   1.413       .  A
C1676      C1688   1.445       .  S
C1677      C1678   1.401       .  A
C1678      H1693   1.085       .  S
C1679      C1680   1.398       .  A
C1679      C1684   1.405       .  A
C1680      C1681   1.393       .  A
C1680      H1695   1.085       .  S
C1681      C1682   1.407       .  A
C1681      C1685   1.439       .  S
C1682      C1683   1.398       .  A
C1683      C1684   1.388       .  A
C1683      H1696   1.076       .  S
C1684      C1686   1.445       .  S
C1686      N1690   1.157       .  T
C1687      N1692   1.157       .  T
C1688      N1691   1.157       .  T
C1697      C1698   1.410   1_655  A
C1697      C1702   1.399       .  A
C1697      C1711   1.444       .  S
C1698      C1703   1.495   1_455  S
C1699      C1700   1.406       .  A
C1699      H1718   1.084       .  S
C1700      C1712   1.443       .  S
C1701      C1702   1.407   1_455  A
C1702      H1717   1.085       .  S
C1703      C1704   1.408       .  A
C1704      C1705   1.402       .  A
C1704      H1719   1.084       .  S
C1705      C1706   1.405       .  A
C1705      C1709   1.442       .  S
C1707      C1708   1.402       .  A
C1707      H1720   1.083       .  S
C1708      C1710   1.443       .  S
C1709      N1713   1.157       .  T
C1710      N1714   1.157       .  T
C1711      N1716   1.157       .  T
C1712      N1715   1.157       .  T
C1721      C1726   1.396       .  A
C1721      C1735   1.444       .  S
C1722      C1727   1.474       .  S
C1722      C1723   1.403       .  A
C1723      C1724   1.401       .  A
C1723      H1742   1.085       .  S
C1724      C1725   1.414       .  A
C1724      C1736   1.444       .  S
C1726      H1741   1.085       .  S
C1727      C1728   1.405       .  A
C1728      C1729   1.409       .  A
C1728      H1743   1.084       .  S
C1729      C1730   1.413       .  A
C1729      C1733   1.441       .  S
C1731      C1732   1.383       .  A
C1731      H1744   1.071       .  S
C1732      C1734   1.447       .  S
C1733      N1737   1.157       .  T
C1734      N1738   1.157       .  T
C1735      N1740   1.157       .  T
C1736      N1739   1.157       .  T
C1745      C1750   1.396       .  A
C1745      C1759   1.444       .  S
C1746      C1751   1.477       .  S
C1746      C1747   1.401       .  A
C1747      C1748   1.398       .  A
C1747      H1766   1.085       .  S
C1748      C1749   1.409       .  A
C1748      C1760   1.441       .  S
C1750      H1765   1.080       .  S
C1751      C1756   1.414       .  A
C1752      H1767   1.085       .  S
C1753      C1754   1.413       .  A
C1754      C1755   1.399       .  A
C1755      C1756   1.400       .  A
C1755      H1768   1.085       .  S
C1756      C1758   1.445       .  S
C1757      N1761   1.157       .  T
C1758      N1762   1.157       .  T
C1759      N1764   1.157       .  T
C1760      N1763   1.156       .  T
C1769      C1770   1.412       .  A
C1769      C1774   1.400       .  A
C1769      C1783   1.445       .  S
C1770      C1775   1.486       .  S
C1770      C1771   1.404       .  A
C1771      C1772   1.402       .  A
C1771      H1790   1.085       .  S
C1772      C1773   1.413       .  A
C1772      C1784   1.444       .  S
C1773      C1774   1.403       .  A
C1774      H1789   1.085       .  S
C1775      C1776   1.406       .  A
C1775      C1780   1.410       .  A
C1776      C1777   1.403       .  A
C1776      H1791   1.084       .  S
C1777      C1778   1.408       .  A
C1777      C1781   1.441       .  S
C1778      C1779   1.400       .  A
C1779      C1780   1.398       .  A
C1779      H1792   1.082       .  S
C1780      C1782   1.444       .  S
C1782      N1786   1.157       .  T
C1783      N1788   1.157       .  T
C1784      N1787   1.157       .  T
C1793      C1794   1.411       .  A
C1793      C1798   1.402       .  A
C1793      C1807   1.444       .  S
C1794      C1799   1.488       .  S
C1794      C1795   1.403       .  A
C1795      C1796   1.402       .  A
C1795      H1814   1.085       .  S
C1796      C1797   1.414       .  A
C1796      C1808   1.444       .  S
C1797      C1798   1.406       .  A
C1798      H1813   1.085       .  S
C1799      C1800   1.406       .  A
C1799      C1804   1.409       .  A
C1800      C1801   1.406       .  A
C1800      H1815   1.084       .  S
C1801      C1802   1.412       .  A
C1801      C1805   1.441       .  S
C1802      C1803   1.403       .  A
C1803      C1804   1.397       .  A
C1803      H1816   1.080       .  S
C1804      C1806   1.445       .  S
C1805      N1809   1.157       .  T
C1806      N1810   1.157       .  T
C1807      N1812   1.157       .  T
C1808      N1811   1.157       .  T
C1817      C1818   1.409       .  A
C1817      C1822   1.396       .  A
C1817      C1831   1.444       .  S
C1818      C1823   1.478       .  S
C1819      C1820   1.398       .  A
C1819      H1838   1.085       .  S
C1820      C1832   1.442       .  S
C1821      C1822   1.400       .  A
C1822      H1837   1.081       .  S
C1823      C1828   1.416       .  A
C1824      C1825   1.397       .  A
C1824      H1839   1.085       .  S
C1825      C1829   1.444   1_455  S
C1826      C1827   1.398       .  A
C1827      C1828   1.395       .  A
C1827      H1840   1.085       .  S
C1828      C1830   1.445       .  S
C1829      N1833   1.157       .  T
C1830      N1834   1.157       .  T
C1831      N1836   1.157       .  T
C1841      C1846   1.398       .  A
C1841      C1855   1.445       .  S
C1842      C1847   1.482       .  S
C1842      C1843   1.402       .  A
C1843      C1844   1.402       .  A
C1843      H1862   1.084       .  S
C1844      C1845   1.410       .  A
C1844      C1856   1.443       .  S
C1846      H1861   1.085       .  S
C1847      C1848   1.403       .  A
C1848      C1849   1.402       .  A
C1848      H1863   1.085       .  S
C1849      C1850   1.409       .  A
C1849      C1853   1.441       .  S
C1851      C1852   1.397       .  A
C1851      H1864   1.084       .  S
C1852      C1854   1.444       .  S
C1853      N1857   1.157       .  T
C1854      N1858   1.157       .  T
C1855      N1860   1.157       .  T
C1856      N1859   1.157       .  T
C1865      C1866   1.407       .  A
C1865      C1870   1.395       .  A
C1865      C1879   1.444       .  S
C1866      C1871   1.482       .  S
C1866      C1867   1.404       .  A
C1867      C1868   1.405       .  A
C1867      H1886   1.085       .  S
C1868      C1869   1.413       .  A
C1868      C1880   1.441       .  S
C1869      C1870   1.404       .  A
C1870      H1885   1.083       .  S
C1871      C1872   1.401       .  A
C1871      C1876   1.412       .  A
C1872      C1873   1.401       .  A
C1872      H1887   1.085       .  S
C1873      C1874   1.417       .  A
C1873      C1877   1.445       .  S
C1874      C1875   1.400       .  A
C1875      C1876   1.398       .  A
C1875      H1888   1.085       .  S
C1876      C1878   1.442       .  S
C1877      N1881   1.158       .  T
C1878      N1882   1.156       .  T
C1879      N1884   1.157       .  T
C1880      N1883   1.157       .  T
C1889      C1894   1.403       .  A
C1889      C1903   1.443       .  S
C1890      C1895   1.485       .  S
C1890      C1891   1.402   1_455  A
C1891      C1892   1.395       .  A
C1891      H1910   1.085       .  S
C1892      C1893   1.406   1_655  A
C1892      C1904   1.439       .  S
C1894      H1909   1.082       .  S
C1895      C1896   1.407       .  A
C1895      C1900   1.409   1_455  A
C1896      C1897   1.404       .  A
C1896      H1911   1.084       .  S
C1897      C1898   1.409       .  A
C1897      C1901   1.443       .  S
C1898      C1899   1.405       .  A
C1899      C1900   1.396   1_455  A
C1899      H1912   1.085   1_455  S
C1901      N1905   1.157       .  T
C1902      N1906   1.157       .  T
C1903      N1908   1.157       .  T
C1904      N1907   1.156       .  T
C1913      C1918   1.391       .  A
C1913      C1927   1.445       .  S
C1914      C1919   1.477       .  S
C1914      C1915   1.406   1_545  A
C1915      C1916   1.402       .  A
C1915      H1934   1.084       .  S
C1916      C1917   1.405   1_565  A
C1916      C1928   1.442       .  S
C1918      H1933   1.079       .  S
C1919      C1920   1.399       .  A
C1920      C1921   1.399       .  A
C1920      H1935   1.085       .  S
C1921      C1922   1.417       .  A
C1921      C1925   1.444       .  S
C1923      C1924   1.396       .  A
C1923      H1936   1.085       .  S
C1924      C1926   1.444       .  S
C1925      N1929   1.157       .  T
C1926      N1930   1.157       .  T
C1927      N1932   1.157       .  T
