geometry optimzed in LAMMPS
_audit_creation_date              2020-11-30 
_audit_creation_method            'lammps2cif' 
_symmetry_space_group_name_H-M    'P1' 
_symmetry_Int_Tables_number       1 
_symmetry_cell_setting            triclinic 
loop_ 
_symmetry_equiv_pos_as_xyz 
  x,y,z 
_cell_length_a                    38.251752141471876 
_cell_length_b                    38.25007759785124 
_cell_length_c                    42.198186745731824 
_cell_angle_alpha                 89.75909312733425 
_cell_angle_beta                  89.97991018020605 
_cell_angle_gamma                 120.00712260440471 
loop_ 
_atom_site_label 
_atom_site_type_symbol 
_atom_site_fract_x 
_atom_site_fract_y 
_atom_site_fract_z 
_atom_site_charge 
C1          C  0.22358564  0.20467008  0.15225946     0.02560
C2          C  0.22243677  0.20296942  0.11905353    -0.13590
C3          C  0.25155835  0.23530624  0.10095246     0.00060
C4          C  0.28132753  0.27009679  0.11619220    -0.12120
C5          C  0.28254296  0.27240320  0.14938012     0.02550
C6          C  0.25390078  0.23929086  0.16714087    -0.11540
H7          H  0.19920297  0.17631336  0.10727294     0.08140
H8          H  0.30321861  0.29546145  0.10218247     0.05670
H9          H  0.25488870  0.24064906  0.19278336     0.05520
C10         C  0.21567729  0.20768529  0.41320235     0.02560
C11         C  0.21586741  0.20484742  0.44634111    -0.13590
C12         C  0.24760187  0.23530663  0.46402381     0.00060
C13         C  0.28043022  0.26727207  0.44812883    -0.12120
C14         C  0.28080152  0.27023746  0.41496914     0.02550
C15         C  0.24719487  0.24135832  0.39800956    -0.11540
H16         H  0.19125695  0.17927197  0.45832481     0.08140
H17         H  0.30566679  0.28978701  0.46167946     0.05670
H18         H  0.24607187  0.24432959  0.37253422     0.05520
C19         C  0.24416422  0.47199345  0.15127954     0.02560
C20         C  0.24551181  0.47166480  0.11813706    -0.13590
C21         C  0.21438608  0.47130800  0.10031902     0.00060
C22         C  0.18078816  0.46906480  0.11583602    -0.12120
C23         C  0.17884582  0.46866789  0.14909701     0.02550
C24         C  0.21164281  0.47196679  0.16651569    -0.11540
H25         H  0.27106458  0.47253232  0.10627555     0.08140
H26         H  0.15610139  0.46722771  0.10195882     0.05670
H27         H  0.21153711  0.47358074  0.19215891     0.05520
C28         C  0.24050576  0.46700962  0.41189852     0.02560
C29         C  0.20808853  0.46804852  0.39741472    -0.13590
C30         C  0.18043322  0.47372767  0.41525684     0.00060
C31         C  0.18327764  0.47466244  0.44839045    -0.12120
C32         C  0.21414269  0.47118618  0.46348218     0.02550
C33         C  0.24342581  0.46852049  0.44509913    -0.11540
H34         H  0.20509780  0.46558440  0.37184851     0.08140
H35         H  0.16155411  0.47816291  0.46248774     0.05670
H36         H  0.26854042  0.46811354  0.45658318     0.05520
C37         C  0.98256184  0.23747977  0.15193310     0.02560
C38         C  0.98630051  0.24091278  0.11883198    -0.13590
C39         C  0.98622147  0.21003451  0.10070042     0.00060
C40         C  0.98547206  0.17704800  0.11640943    -0.12120
C41         C  0.98316712  0.17399687  0.14959689     0.02550
C42         C  0.97949447  0.20326471  0.16681982    -0.11540
H43         H  0.98887127  0.26739215  0.10724590     0.08140
H44         H  0.98697619  0.15390800  0.10278811     0.05670
H45         H  0.97550184  0.20007396  0.19230687     0.05520
C46         C  0.49243753  0.23960498  0.41174162     0.02560
C47         C  0.49375680  0.24176441  0.44497142    -0.13590
C48         C  0.49002297  0.20925792  0.46328430     0.00060
C49         C  0.48318188  0.17376028  0.44808940    -0.12120
C50         C  0.48212258  0.17128149  0.41491319     0.02550
C51         C  0.48759458  0.20470143  0.39705480    -0.11540
H52         H  0.49781660  0.26875895  0.45656641     0.08140
H53         H  0.47832783  0.14794400  0.46214880     0.05670
H54         H  0.48722801  0.20326429  0.37143051     0.05520
O55         O  0.01458647  0.38289623  0.31763043    -0.88750
C56         C  0.09885725  0.08808424  0.23509849     1.11290
O57         O  0.48051945  0.42990628  0.28247274    -1.36560
O58         O  0.10432953  0.06234064  0.31724115    -0.90240
O59         O  0.44709831  0.34911368  0.32017091    -0.90900
O60         O  0.43783975  0.43009239  0.34943641    -0.79730
O61         O  0.05956115  0.47208281  0.31215456    -1.01810
C62         C  0.48159933  0.04554711  0.33969837     1.21330
O63         O  0.43839515  0.47190324  0.28205198    -1.36710
Mn64       Mn  0.48064532  0.47189414  0.24760923     1.82060
O65         O  0.48082770  0.01396835  0.34876211    -0.78800
O66         O  0.07110294  0.09635407  0.31476792    -0.88200
C67         C  0.47922479  0.04431179  0.22384426     1.12420
C68         C  0.09895388  0.09115570  0.32592061     1.07140
O69         O  0.43902755  0.42956632  0.21557614    -0.79740
O70         O  0.02277668  0.01386842  0.28189170    -1.33430
O71         O  0.40153443  0.39270814  0.25288122    -0.98950
C72         C  0.36164458  0.47187726  0.32661278     1.05850
Mn73       Mn  0.02628113  0.07081004  0.28053693     1.48570
O74         O  0.35548454  0.43817589  0.31609793    -0.88150
Mn75       Mn  0.42665650  0.37298006  0.28356336     1.49560
O76         O  0.01362493  0.38168823  0.24760631    -0.92030
C77         C  0.05376303  0.47248632  0.34050980     1.19050
C78         C  0.47957128  0.35310649  0.23849976     1.11110
Mn79       Mn  0.48036323  0.47184107  0.31663673     1.80970
O80         O  0.48003572  0.04945869  0.25223434    -0.97180
Mn81       Mn  0.03427550  0.42667383  0.28247449     1.49260
C82         C  0.48160656  0.35536581  0.32928309     1.07630
Mn83       Mn  0.43549690  0.02562151  0.28234536     1.49930
C84         C  0.36335418  0.47333594  0.23643853     1.10530
O85         O  0.40148974  0.39424192  0.31188872    -1.02980
O86         O  0.07033446  0.09407144  0.24386270    -0.92640
C87         C  0.40624950  0.39946529  0.34026216     1.21810
O88         O  0.48153066  0.05122234  0.31126214    -1.03370
O89         O  0.10462595  0.06096304  0.24715093    -0.90770
O90         O  0.39109049  0.50611207  0.24781101    -0.90370
O91         O  0.44623103  0.34772208  0.24922703    -0.90400
Mn92       Mn  0.07987038  0.01718152  0.28230859     1.47860
O93         O  0.47991172  0.01358798  0.21451207    -0.78870
C94         C  0.40762032  0.39843450  0.22448096     1.14860
O95         O  0.02202498  0.47162172  0.34914465    -0.77600
O96         O  0.02290038  0.47209786  0.21535955    -0.77220
Mn97       Mn  0.38107023  0.41850965  0.28164332     1.51150
O98         O  0.39109196  0.50557972  0.31766293    -0.89570
O99         O  0.05974994  0.47177596  0.25261392    -0.97100
O100        O  0.35734763  0.43900831  0.24570097    -0.92110
C101        C  0.05385477  0.47147802  0.22420604     1.12650
C102        C  0.47965050  0.07436928  0.36182152    -0.06700
C103        C  0.45574803  0.09097348  0.35266403    -0.17830
C104        C  0.45251959  0.11916594  0.37131385     0.10500
C105        C  0.47689302  0.13459592  0.39857605    -0.06620
C106        C  0.49981501  0.11703607  0.40851514    -0.17860
C107        C  0.50098098  0.08669451  0.39076448     0.10530
S108        S  0.41557900  0.13291470  0.35951942    -0.32820
S109        S  0.03188456  0.06698054  0.40571411    -0.32830
H110        H  0.54512408  0.06163498  0.37613675     0.28540
H111        H  0.40750279  0.14067034  0.39042610     0.28540
H112        H  0.43894456  0.08152453  0.33074705     0.19130
H113        H  0.01842079  0.12823399  0.42952299     0.19130
C114        C  0.48488574  0.32782670  0.35252646    -0.06700
C115        C  0.51351009  0.31595697  0.34590266    -0.17830
C116        C  0.51809141  0.28889277  0.36553550     0.10500
C117        C  0.49266901  0.27213589  0.39221185    -0.06620
C118        C  0.46499076  0.28487093  0.39947415    -0.17860
C119        C  0.46144684  0.31301754  0.38045395     0.10530
S120        S  0.55758350  0.27738981  0.35694648    -0.32820
S121        S  0.42854507  0.33022906  0.39477778    -0.32830
H122        H  0.44847854  0.36799175  0.37964173     0.28540
H123        H  0.57126077  0.29967978  0.32857650     0.28540
H124        H  0.53228210  0.32779351  0.32495492     0.19130
H125        H  0.44580858  0.27267662  0.42021195     0.19130
C126        C  0.47999090  0.07565361  0.20267689    -0.06700
C127        C  0.00262499  0.11567894  0.21327967    -0.17830
C128        C  0.00726611  0.14801437  0.19495453     0.10500
C129        C  0.48475322  0.14067005  0.16673576    -0.06620
C130        C  0.46185136  0.10060441  0.15593939    -0.17860
C131        C  0.45985151  0.06812255  0.17322653     0.10530
S132        S  0.04532376  0.19768987  0.20776369    -0.32820
S133        S  0.42987416  0.01828481  0.15689177    -0.32830
H134        H  0.41674423  0.99792285  0.18593380     0.28540
H135        H  0.05654999  0.21387597  0.17699864     0.28540
H136        H  0.01926738  0.12220779  0.23531482     0.19130
H137        H  0.44454752  0.09436040  0.13428996     0.19130
C138        C  0.47867942  0.32388694  0.21505364    -0.06700
C139        C  0.00957959  0.33701210  0.19225299    -0.17830
C140        C  0.01166142  0.30990681  0.17114237     0.10500
C141        C  0.48110569  0.26877116  0.17170025    -0.06620
C142        C  0.44944498  0.25604000  0.19367091    -0.17860
C143        C  0.44847376  0.28256113  0.21578574     0.10530
S144        S  0.05536038  0.32938954  0.14567149    -0.32820
S145        S  0.40975012  0.26060284  0.24586600    -0.32830
H146        H  0.43625636  0.28078040  0.27110672     0.28540
H147        H  0.05983430  0.29514593  0.14808029     0.28540
H148        H  0.03296369  0.36843042  0.19142234     0.19130
H149        H  0.42606838  0.22453897  0.19455480     0.19130
C150        C  0.48812417  0.21233825  0.06541384    -0.06700
C151        C  0.51574580  0.20427815  0.04970363    -0.17830
C152        C  0.51740747  0.20357012  0.01653006     0.10500
C153        C  0.49115407  0.21157995  0.49840115    -0.06620
C154        C  0.46436893  0.22079469  0.01395455    -0.17860
C155        C  0.46222546  0.22092387  0.04714343     0.10530
S156        S  0.55415061  0.19384196  0.99768699    -0.32820
S157        S  0.92386589  0.22868753  0.06538042    -0.32830
H158        H  0.91365840  0.24290439  0.03811184     0.28540
H159        H  0.56739288  0.18334520  0.52533634     0.28540
H160        H  0.53622040  0.19861938  0.06356908     0.19130
H161        H  0.44390185  0.22631156  0.99993242     0.19130
C162        C  0.27256166  0.46784282  0.39154244    -0.06700
C163        C  0.28952017  0.99789961  0.36803184    -0.17830
C164        C  0.31833808  0.99973203  0.34679519     0.10500
C165        C  0.33216769  0.47181425  0.34945970    -0.06620
C166        C  0.31455844  0.44111474  0.37251243    -0.17860
C167        C  0.28498168  0.43875886  0.39348563     0.10530
S168        S  0.33148182  0.03428358  0.31396048    -0.32820
S169        S  0.26272880  0.39661434  0.42066261    -0.32830
H170        H  0.22375457  0.39165589  0.41984879     0.28540
H171        H  0.37112858  0.05864180  0.32444679     0.28540
H172        H  0.27943810  0.01967664  0.36564901     0.19130
H173        H  0.32280331  0.41793344  0.37349820     0.19130
C174        C  0.14852570  0.47822522  0.39891655    -0.06700
C175        C  0.10817852  0.45480178  0.40894781    -0.17830
C176        C  0.07663300  0.45452725  0.39182000     0.10500
C177        C  0.08515376  0.47612641  0.36294380    -0.06620
C178        C  0.12558932  0.00032427  0.35356699    -0.17860
C179        C  0.15719083  0.00325142  0.37190220     0.10530
S180        S  0.02622228  0.42362796  0.40668588    -0.32820
S181        S  0.20771946  0.04044508  0.35984734    -0.32830
H182        H  0.22398104  0.04811017  0.39060862     0.28540
H183        H  0.01793612  0.45554441  0.40694711     0.28540
H184        H  0.10102497  0.43578853  0.42981038     0.19130
H185        H  0.13288227  0.01764259  0.33178297     0.19130
C186        C  0.27669804  0.47269726  0.17051248    -0.06700
C187        C  0.30167651  0.00766102  0.18759731    -0.17830
C188        C  0.33153349  0.00968160  0.20780336     0.10500
C189        C  0.33612307  0.47523562  0.21199674    -0.06620
C190        C  0.31168795  0.44061187  0.19384699    -0.17860
C191        C  0.28207755  0.43893871  0.17334810     0.10530
S192        S  0.36100350  0.05681484  0.22825900    -0.32820
S193        S  0.25126800  0.39247494  0.15230877    -0.32830
H194        H  0.21557671  0.39449756  0.15285967     0.28540
H195        H  0.39745194  0.06387672  0.21448873     0.28540
H196        H  0.29765688  0.03365915  0.18527883     0.19130
H197        H  0.31484759  0.41418358  0.19617206     0.19130
C198        C  0.14309288  0.46539103  0.16589470    -0.06700
C199        C  0.12728728  0.99002779  0.15640137    -0.17830
C200        C  0.09613169  0.99063631  0.17353445     0.10500
C201        C  0.08200271  0.46812361  0.20193152    -0.06620
C202        C  0.09742428  0.44312168  0.21097256    -0.17860
C203        C  0.12590888  0.43986044  0.19257247     0.10530
S204        S  0.07798975  0.02297388  0.15935807    -0.32820
S205        S  0.13757053  0.40127731  0.20394467    -0.32830
H206        H  0.14542385  0.39354689  0.17295929     0.28540
H207        H  0.03751790  0.99171302  0.15824644     0.28540
H208        H  0.13979736  0.00956548  0.13587336     0.19130
H209        H  0.08669755  0.42522771  0.23244112     0.19130
C210        C  0.21585647  0.47124965  0.49853184    -0.06700
C211        C  0.21831608  0.00432346  0.01485005    -0.17830
C212        C  0.21908568  0.00565935  0.04797612     0.10500
C213        C  0.21681400  0.47296216  0.06537882    -0.06620
C214        C  0.21514789  0.44025757  0.04914555    -0.17860
C215        C  0.21404414  0.43875118  0.01600809     0.10530
S216        S  0.22350143  0.05008570  0.06658466    -0.32820
S217        S  0.20796008  0.39355019  0.49766187    -0.32830
H218        H  0.18363020  0.39325108  0.47256873     0.28540
H219        H  0.24480542  0.04901285  0.09337213     0.28540
H220        H  0.21994751  0.02945486  0.00163681     0.19130
H221        H  0.21312276  0.41500416  0.06243946     0.19130
C222        C  0.37619258  0.36805728  0.36166644    -0.06700
C223        C  0.35760297  0.32816016  0.35055622    -0.17830
C224        C  0.32990982  0.29582579  0.36889428     0.10500
C225        C  0.31593353  0.30322034  0.39772001    -0.06620
C226        C  0.33490624  0.34309429  0.40929581    -0.17860
C227        C  0.36570929  0.37536807  0.39207086     0.10530
S228        S  0.31693181  0.24603863  0.35532456    -0.32820
S229        S  0.38987308  0.42454955  0.41023116    -0.32830
H230        H  0.39467298  0.44654632  0.38226181     0.28540
H231        H  0.31224289  0.22930852  0.38586213     0.28540
H232        H  0.36668274  0.32165834  0.32801459     0.19130
H233        H  0.32526486  0.34940677  0.43162783     0.19130
C234        C  0.12678079  0.12056413  0.34966715    -0.06700
C235        C  0.14595521  0.10819187  0.37181658    -0.17830
C236        C  0.17443768  0.13550910  0.39326778     0.10500
C237        C  0.18302889  0.17602878  0.39365351    -0.06620
C238        C  0.16272907  0.18797738  0.37246025    -0.17860
C239        C  0.13569473  0.16131228  0.35014692     0.10530
S240        S  0.20031132  0.11724319  0.41809964    -0.32820
S241        S  0.11658979  0.18264556  0.32145736    -0.32830
H242        H  0.12521369  0.16552662  0.29524241     0.28540
H243        H  0.23818660  0.15270366  0.41630399     0.28540
H244        H  0.13958853  0.07728098  0.37189456     0.19130
H245        H  0.16949555  0.21907842  0.37230686     0.19130
C246        C  0.37685135  0.37001959  0.20213586    -0.06700
C247        C  0.33618145  0.35493991  0.21018364    -0.17830
C248        C  0.30500996  0.32607559  0.19170332     0.10500
C249        C  0.31424884  0.30872835  0.16581815    -0.06620
C250        C  0.35497684  0.32418602  0.15732127    -0.17860
C251        C  0.38624970  0.35523880  0.17474135     0.10530
S252        S  0.25427253  0.31352796  0.20225208    -0.32820
S253        S  0.43737536  0.37180623  0.16281723    -0.32830
H254        H  0.44777349  0.41254025  0.16009204     0.28540
H255        H  0.23893278  0.30418300  0.17124412     0.28540
H256        H  0.32839674  0.36592856  0.23107850     0.19130
H257        H  0.36257370  0.31116797  0.13758229     0.19130
C258        C  0.19184692  0.17145406  0.17157735    -0.06700
C259        C  0.15120708  0.15793391  0.16450412    -0.17830
C260        C  0.11996176  0.12957941  0.18388284     0.10500
C261        C  0.12943241  0.11557275  0.21175644    -0.06620
C262        C  0.17007466  0.12792865  0.21802020    -0.17860
C263        C  0.20110277  0.15476409  0.19799839     0.10530
S264        S  0.06865451  0.10910861  0.17110043    -0.32820
S265        S  0.25157957  0.16534650  0.20704106    -0.32830
H266        H  0.26518804  0.17179298  0.17543635     0.28540
H267        H  0.07633790  0.13518868  0.14514880     0.28540
H268        H  0.14399630  0.16992145  0.14381067     0.19130
H269        H  0.17785990  0.11654077  0.23881843     0.19130
C270        C  0.24723232  0.23381962  0.49914434    -0.06700
C271        C  0.28106370  0.23693621  0.01483028    -0.17830
C272        C  0.28286810  0.23646595  0.04791005     0.10500
C273        C  0.25023508  0.23307668  0.06599105    -0.06620
C274        C  0.21608369  0.22918897  0.05041804    -0.17860
C275        C  0.21446896  0.23020760  0.01732504     0.10530
S276        S  0.32732577  0.23963075  0.06554265    -0.32820
S277        S  0.17090149  0.22932423  0.50003654    -0.32830
H278        H  0.19209006  0.25606541  0.47502377     0.28540
H279        H  0.30771848  0.21609967  0.09245005     0.28540
H280        H  0.30618627  0.23938105  0.00115833     0.19130
H281        H  0.19114826  0.22700504  0.06420767     0.19130
C282        C  0.22358592  0.20466984  0.65225927     0.02560
C283        C  0.22243689  0.20296915  0.61905335    -0.13590
C284        C  0.25155831  0.23530599  0.60095222     0.00060
C285        C  0.28132754  0.27009659  0.61619191    -0.12120
C286        C  0.28254310  0.27240302  0.64937983     0.02550
C287        C  0.25390107  0.23929064  0.66714063    -0.11540
H288        H  0.19920306  0.17631306  0.60727281     0.08140
H289        H  0.30321851  0.29546127  0.60218214     0.05670
H290        H  0.25488909  0.24064885  0.69278312     0.05520
C291        C  0.21567807  0.20768538  0.91320259     0.02560
C292        C  0.21586822  0.20484758  0.94634136    -0.13590
C293        C  0.24760270  0.23530685  0.96402402     0.00060
C294        C  0.28043102  0.26727227  0.94812901    -0.12120
C295        C  0.28080225  0.27023759  0.91496932     0.02550
C296        C  0.24719560  0.24135841  0.89800978    -0.11540
H297        H  0.19125777  0.17927216  0.95832509     0.08140
H298        H  0.30566758  0.28978727  0.96167961     0.05670
H299        H  0.24607257  0.24432964  0.87253444     0.05520
C300        C  0.24416314  0.47199262  0.65127997     0.02560
C301        C  0.24551075  0.47166409  0.61813751    -0.13590
C302        C  0.21438498  0.47130723  0.60031949     0.00060
C303        C  0.18078694  0.46906375  0.61583653    -0.12120
C304        C  0.17884457  0.46866669  0.64909755     0.02550
C305        C  0.21164169  0.47196579  0.66651617    -0.11540
H306        H  0.27106360  0.47253179  0.60627597     0.08140
H307        H  0.15610014  0.46722662  0.60195935     0.05670
H308        H  0.21153607  0.47357978  0.69215939     0.05520
C309        C  0.24050513  0.46700885  0.91189809     0.02560
C310        C  0.20808772  0.46804750  0.89741436    -0.13590
C311        C  0.18043236  0.47372649  0.91525658     0.00060
C312        C  0.18327697  0.47466139  0.94839017    -0.12120
C313        C  0.21414224  0.47118544  0.96348179     0.02550
C314        C  0.24342536  0.46851987  0.94509868    -0.11540
H315        H  0.20509690  0.46558335  0.87184816     0.08140
H316        H  0.16155346  0.47816181  0.96248753     0.05670
H317        H  0.26854014  0.46811318  0.95658265     0.05520
C318        C  0.98256753  0.23748262  0.65193428     0.02560
C319        C  0.98631107  0.24091862  0.61883348    -0.13590
C320        C  0.98622789  0.21003906  0.60070064     0.00060
C321        C  0.98547266  0.17704915  0.61640923    -0.12120
C322        C  0.98316685  0.17399690  0.64959667     0.02550
C323        C  0.97949538  0.20326503  0.66682000    -0.11540
H324        H  0.98888856  0.26740150  0.60724879     0.08140
H325        H  0.98697371  0.15390757  0.60278782     0.05670
H326        H  0.97550074  0.20007273  0.69230686     0.05520
C327        C  0.49243768  0.23960508  0.91174148     0.02560
C328        C  0.49375699  0.24176452  0.94497128    -0.13590
C329        C  0.49002309  0.20925800  0.96328418     0.00060
C330        C  0.48318188  0.17376032  0.94808927    -0.12120
C331        C  0.48212259  0.17128152  0.91491305     0.02550
C332        C  0.48759465  0.20470150  0.89705466    -0.11540
H333        H  0.49781687  0.26875909  0.95656627     0.08140
H334        H  0.47832773  0.14794401  0.96214866     0.05670
H335        H  0.48722808  0.20326436  0.87143037     0.05520
O336        O  0.01458461  0.38289614  0.81763232    -0.88750
C337        C  0.09885781  0.08808419  0.73509843     1.11290
O338        O  0.48051943  0.42990634  0.78247253    -1.36560
O339        O  0.10433039  0.06234057  0.81724130    -0.90240
O340        O  0.44709840  0.34911378  0.82017077    -0.90900
O341        O  0.43783980  0.43009254  0.84943619    -0.79730
O342        O  0.05955984  0.47208248  0.81215537    -1.01810
C343        C  0.48159929  0.04554707  0.83969823     1.21330
O344        O  0.43839504  0.47190322  0.78205174    -1.36710
Mn345      Mn  0.48064521  0.47189414  0.74760900     1.82060
O346        O  0.48082768  0.01396832  0.84876198    -0.78800
O347        O  0.07110439  0.09635454  0.81476755    -0.88200
C348        C  0.47922473  0.04431163  0.72384412     1.12420
C349        C  0.09895512  0.09115596  0.82592046     1.07140
O350        O  0.43902745  0.42956625  0.71557595    -0.79740
O351        O  0.02277742  0.01386862  0.78189186    -1.33430
O352        O  0.40153435  0.39270805  0.75288103    -0.98950
C353        C  0.36164445  0.47187719  0.82661255     1.05850
Mn354      Mn  0.02628208  0.07081035  0.78053694     1.48570
O355        O  0.35548451  0.43817583  0.81609777    -0.88150
Mn356      Mn  0.42665652  0.37298009  0.78356320     1.49560
O357        O  0.01362375  0.38168746  0.74760827    -0.92030
C358        C  0.05376187  0.47248615  0.84051059     1.19050
C359        C  0.47957129  0.35310653  0.73849961     1.11110
Mn360      Mn  0.48036318  0.47184116  0.81663647     1.80970
O361        O  0.48003566  0.04945851  0.75223419    -0.97180
Mn362      Mn  0.03427412  0.42667321  0.78247584     1.49260
C363        C  0.48160667  0.35536593  0.82928293     1.07630
Mn364      Mn  0.43549686  0.02562138  0.78234522     1.49930
C365        C  0.36335386  0.47333566  0.73643839     1.10530
O366        O  0.40148977  0.39424195  0.81188856    -1.02980
O367        O  0.07033491  0.09407131  0.74386245    -0.92640
C368        C  0.40624958  0.39946539  0.84026199     1.21810
O369        O  0.48153062  0.05122227  0.81126199    -1.03370
O370        O  0.10462664  0.06096318  0.74715109    -0.90770
O371        O  0.39109024  0.50611186  0.74781074    -0.90370
O372        O  0.44623105  0.34772211  0.74922690    -0.90400
Mn373      Mn  0.07987105  0.01718155  0.78230867     1.47860
O374        O  0.47991173  0.01358786  0.71451191    -0.78870
C375        C  0.40762024  0.39843441  0.72448077     1.14860
O376        O  0.02202377  0.47162146  0.84914544    -0.77600
O377        O  0.02289932  0.47209671  0.71536027    -0.77220
Mn378      Mn  0.38107015  0.41850957  0.78164316     1.51150
O379        O  0.39109175  0.50557967  0.81766265    -0.89570
O380        O  0.05974879  0.47177481  0.75261475    -0.97100
O381        O  0.35734739  0.43900808  0.74570087    -0.92110
C382        C  0.05385358  0.47147666  0.72420685     1.12650
C383        C  0.47965046  0.07436926  0.86182137    -0.06700
C384        C  0.45574807  0.09097354  0.85266384    -0.17830
C385        C  0.45251963  0.11916602  0.87131366     0.10500
C386        C  0.47689299  0.13459594  0.89857590    -0.06620
C387        C  0.49981489  0.11703600  0.90851503    -0.17860
C388        C  0.50098085  0.08669443  0.89076437     0.10530
S389        S  0.41557912  0.13291486  0.85951915    -0.32820
S390        S  0.03189262  0.06698542  0.90571245    -0.32830
H391        H  0.54512396  0.06163489  0.87613674     0.28540
H392        H  0.40750286  0.14067050  0.89042582     0.28540
H393        H  0.43894466  0.08152463  0.83074684     0.19130
H394        H  0.01842937  0.12823925  0.92952149     0.19130
C395        C  0.48488588  0.32782682  0.85252631    -0.06700
C396        C  0.51351018  0.31595704  0.84590246    -0.17830
C397        C  0.51809151  0.28889284  0.86553531     0.10500
C398        C  0.49266918  0.27213601  0.89221170    -0.06620
C399        C  0.46499099  0.28487112  0.89947404    -0.17860
C400        C  0.46144706  0.31301773  0.88045384     0.10530
S401        S  0.55758354  0.27738980  0.85694623    -0.32820
S402        S  0.42854539  0.33022933  0.89477775    -0.32830
H403        H  0.44847868  0.36799189  0.87964151     0.28540
H404        H  0.57126078  0.29967977  0.82857625     0.28540
H405        H  0.53228213  0.32779353  0.82495470     0.19130
H406        H  0.44580886  0.27267686  0.92021187     0.19130
C407        C  0.47999082  0.07565346  0.70267679    -0.06700
C408        C  0.00262460  0.11567887  0.71327949    -0.17830
C409        C  0.00726562  0.14801411  0.69495420     0.10500
C410        C  0.48475314  0.14066994  0.66673575    -0.06620
C411        C  0.46185126  0.10060432  0.65593936    -0.17860
C412        C  0.45985141  0.06812243  0.67322645     0.10530
S413        S  0.04532367  0.19768960  0.70776308    -0.32820
S414        S  0.42987406  0.01828472  0.65689165    -0.32830
H415        H  0.41674424  0.99792269  0.68593366     0.28540
H416        H  0.05655027  0.21387515  0.67699790     0.28540
H417        H  0.01926722  0.12220792  0.73531455     0.19130
H418        H  0.44454740  0.09436034  0.63428994     0.19130
C419        C  0.47867941  0.32388693  0.71505353    -0.06700
C420        C  0.00958122  0.33701343  0.69225526    -0.17830
C421        C  0.01166533  0.30990906  0.67114509     0.10500
C422        C  0.48110560  0.26877106  0.67170022    -0.06620
C423        C  0.44944493  0.25603995  0.69367092    -0.17860
C424        C  0.44847375  0.28256113  0.71578571     0.10530
S425        S  0.05536637  0.32939340  0.64567639    -0.32820
S426        S  0.40975014  0.26060290  0.74586601    -0.32830
H427        H  0.43625642  0.28078051  0.77110669     0.28540
H428        H  0.05984113  0.29515037  0.64808621     0.28540
H429        H  0.03296462  0.36843200  0.69142511     0.19130
H430        H  0.42606834  0.22453892  0.69455486     0.19130
C431        C  0.48812398  0.21233807  0.56541390    -0.06700
C432        C  0.51574587  0.20427834  0.54970371    -0.17830
C433        C  0.51740757  0.20357036  0.51653014     0.10500
C434        C  0.49115422  0.21158005  0.99840105    -0.06620
C435        C  0.46436849  0.22079419  0.51395464    -0.17860
C436        C  0.46222501  0.22092332  0.54714351     0.10530
S437        S  0.55415101  0.19384267  0.49768704    -0.32820
S438        S  0.92390230  0.22873729  0.56537688    -0.32830
H439        H  0.91372218  0.24298284  0.53811057     0.28540
H440        H  0.56739207  0.18334401  0.02533629     0.28540
H441        H  0.53622063  0.19861981  0.56356916     0.19130
H442        H  0.44390123  0.22631080  0.49993250     0.19130
C443        C  0.27256109  0.46784221  0.89154199    -0.06700
C444        C  0.28952054  0.99789956  0.86803211    -0.17830
C445        C  0.31833828  0.99973194  0.84679532     0.10500
C446        C  0.33216750  0.47181410  0.84945946    -0.06620
C447        C  0.31455831  0.44111456  0.87251217    -0.17860
C448        C  0.28498139  0.43875847  0.89348528     0.10530
S449        S  0.33148185  0.03428347  0.81396062    -0.32820
S450        S  0.26272871  0.39661398  0.92066230    -0.32830
H451        H  0.22375439  0.39165530  0.91984850     0.28540
H452        H  0.37112864  0.05864173  0.82444685     0.28540
H453        H  0.27943850  0.01967663  0.86564938     0.19130
H454        H  0.32280337  0.41793340  0.87349799     0.19130
C455        C  0.14852472  0.47822401  0.89891646    -0.06700
C456        C  0.10817758  0.45480053  0.90894784    -0.17830
C457        C  0.07663198  0.45452631  0.89182036     0.10500
C458        C  0.08515264  0.47612600  0.86294443    -0.06620
C459        C  0.12558992  0.00032404  0.85356712    -0.17860
C460        C  0.15719139  0.00325125  0.87190243     0.10530
S461        S  0.02622126  0.42362657  0.90668615    -0.32820
S462        S  0.20772004  0.04044498  0.85984769    -0.32830
H463        H  0.22398152  0.04811002  0.89060900     0.28540
H464        H  0.01793474  0.45554278  0.90694760     0.28540
H465        H  0.10102412  0.43578701  0.92981024     0.19130
H466        H  0.13288293  0.01764238  0.83178311     0.19130
C467        C  0.27669703  0.47269651  0.67051286    -0.06700
C468        C  0.30167665  0.00766092  0.68759697    -0.17830
C469        C  0.33153355  0.00968146  0.70780311     0.10500
C470        C  0.33612252  0.47523519  0.71199675    -0.06620
C471        C  0.31168728  0.44061135  0.69384713    -0.17860
C472        C  0.28207665  0.43893803  0.67334841     0.10530
S473        S  0.36100344  0.05681465  0.72825884    -0.32820
S474        S  0.25126701  0.39247418  0.65230922    -0.32830
H475        H  0.21557570  0.39449675  0.65286023     0.28540
H476        H  0.39745193  0.06387663  0.71448863     0.28540
H477        H  0.29765705  0.03365906  0.68527847     0.19130
H478        H  0.31484702  0.41418311  0.69617215     0.19130
C479        C  0.14309161  0.46538967  0.66589535    -0.06700
C480        C  0.12728760  0.99002800  0.65640134    -0.17830
C481        C  0.09613206  0.99063654  0.67353446     0.10500
C482        C  0.08200155  0.46812227  0.70193236    -0.06620
C483        C  0.09742345  0.44312067  0.71097352    -0.17860
C484        C  0.12590801  0.43985941  0.69257337     0.10530
S485        S  0.07799021  0.02297424  0.65935820    -0.32820
S486        S  0.13757020  0.40127677  0.70394597    -0.32830
H487        H  0.14542417  0.39354641  0.67296078     0.28540
H488        H  0.03751833  0.99171346  0.65824658     0.28540
H489        H  0.13979771  0.00956574  0.63587335     0.19130
H490        H  0.08669690  0.42522688  0.73244219     0.19130
C491        C  0.21585638  0.47124927  0.99853142    -0.06700
C492        C  0.21831560  0.00432343  0.51484983    -0.17830
C493        C  0.21908536  0.00565932  0.54797590     0.10500
C494        C  0.21681310  0.47296169  0.56537929    -0.06620
C495        C  0.21514710  0.44025726  0.54914585    -0.17860
C496        C  0.21404385  0.43875129  0.51600837     0.10530
S497        S  0.22350108  0.05008563  0.56658450    -0.32820
S498        S  0.20796022  0.39354991  0.99766180    -0.32830
H499        H  0.18363009  0.39325050  0.97256875     0.28540
H500        H  0.24480524  0.04901284  0.59337188     0.28540
H501        H  0.21994693  0.02945481  0.50163662     0.19130
H502        H  0.21312173  0.41500366  0.56243964     0.19130
C503        C  0.37619279  0.36805742  0.86166633    -0.06700
C504        C  0.35760328  0.32816027  0.85055619    -0.17830
C505        C  0.32991035  0.29582591  0.86889437     0.10500
C506        C  0.31593414  0.30322048  0.89772012    -0.06620
C507        C  0.33490674  0.34309447  0.90929584    -0.17860
C508        C  0.36570960  0.37536825  0.89207078     0.10530
S509        S  0.31693253  0.24603876  0.85532475    -0.32820
S510        S  0.38987329  0.42454981  0.91023096    -0.32830
H511        H  0.39467301  0.44654645  0.88226157     0.28540
H512        H  0.31224378  0.22930879  0.88586236     0.28540
H513        H  0.36668298  0.32165843  0.82801454     0.19130
H514        H  0.32526541  0.34940696  0.93162788     0.19130
C515        C  0.12678201  0.12056438  0.84966704    -0.06700
C516        C  0.14595643  0.10819210  0.87181647    -0.17830
C517        C  0.17443869  0.13550924  0.89326784     0.10500
C518        C  0.18302970  0.17602886  0.89365373    -0.06620
C519        C  0.16272986  0.18797746  0.87246050    -0.17860
C520        C  0.13569574  0.16131246  0.85014702     0.10530
S521        S  0.20031227  0.11724333  0.91809975    -0.32820
S522        S  0.11659078  0.18264583  0.82145755    -0.32830
H523        H  0.12521504  0.16552729  0.79524252     0.28540
H524        H  0.23818752  0.15270388  0.91630428     0.28540
H525        H  0.13958988  0.07728125  0.87189436     0.19130
H526        H  0.16949621  0.21907846  0.87230723     0.19130
C527        C  0.37685131  0.37001948  0.70213564    -0.06700
C528        C  0.33618140  0.35493971  0.71018340    -0.17830
C529        C  0.30500996  0.32607537  0.69170305     0.10500
C530        C  0.31424892  0.30872823  0.66581784    -0.06620
C531        C  0.35497693  0.32418602  0.65732097    -0.17860
C532        C  0.38624973  0.35523878  0.67474110     0.10530
S533        S  0.25427247  0.31352755  0.70225184    -0.32820
S534        S  0.43737543  0.37180633  0.66281701    -0.32830
H535        H  0.44777346  0.41254032  0.66009181     0.28540
H536        H  0.23893271  0.30418254  0.67124389     0.28540
H537        H  0.32839663  0.36592829  0.73107827     0.19130
H538        H  0.36257384  0.31116805  0.63758198     0.19130
C539        C  0.19184727  0.17145386  0.67157718    -0.06700
C540        C  0.15120743  0.15793387  0.66450410    -0.17830
C541        C  0.11996217  0.12957942  0.68388287     0.10500
C542        C  0.12943290  0.11557259  0.71175633    -0.06620
C543        C  0.17007515  0.12792834  0.71801995    -0.17860
C544        C  0.20110320  0.15476380  0.69799812     0.10530
S545        S  0.06865484  0.10910904  0.67110077    -0.32820
S546        S  0.25158003  0.16534622  0.70704067    -0.32830
H547        H  0.26518844  0.17179280  0.67543595     0.28540
H548        H  0.07633821  0.13518909  0.64514913     0.28540
H549        H  0.14399661  0.16992153  0.64381076     0.19130
H550        H  0.17786044  0.11654039  0.73881810     0.19130
C551        C  0.24723308  0.23382001  0.99914455    -0.06700
C552        C  0.28106310  0.23693596  0.51482991    -0.17830
C553        C  0.28286773  0.23646572  0.54790967     0.10500
C554        C  0.25023479  0.23307637  0.56599082    -0.06620
C555        C  0.21608319  0.22918837  0.55041797    -0.17860
C556        C  0.21446818  0.23020691  0.51732498     0.10530
S557        S  0.32732555  0.23963061  0.56554204    -0.32820
S558        S  0.17090270  0.22932552  0.00003634    -0.32830
H559        H  0.19209166  0.25606665  0.97502364     0.28540
H560        H  0.30771845  0.21609949  0.59244947     0.28540
H561        H  0.30618565  0.23938091  0.50115785     0.19130
H562        H  0.19114776  0.22700426  0.56420774     0.19130
C563        C  0.22358565  0.70467048  0.15225892     0.02560
C564        C  0.22243676  0.70296983  0.11905301    -0.13590
C565        C  0.25155838  0.73530661  0.10095195     0.00060
C566        C  0.28132762  0.77009715  0.11619169    -0.12120
C567        C  0.28254306  0.77240355  0.14937962     0.02550
C568        C  0.25390083  0.73929120  0.16714035    -0.11540
H569        H  0.19920293  0.67631378  0.10727242     0.08140
H570        H  0.30321876  0.79546178  0.10218196     0.05670
H571        H  0.25488877  0.74064934  0.19278284     0.05520
C572        C  0.21567778  0.70768564  0.41320249     0.02560
C573        C  0.21586789  0.70484774  0.44634124    -0.13590
C574        C  0.24760239  0.73530693  0.46402394     0.00060
C575        C  0.28043075  0.76727235  0.44812896    -0.12120
C576        C  0.28080200  0.77023775  0.41496928     0.02550
C577        C  0.24719533  0.74135867  0.39800971    -0.11540
H578        H  0.19125742  0.67927229  0.45832494     0.08140
H579        H  0.30566734  0.78978728  0.46167959     0.05670
H580        H  0.24607232  0.74432997  0.37253438     0.05520
C581        C  0.24416410  0.97199322  0.15127980     0.02560
C582        C  0.24551173  0.97166465  0.11813733    -0.13590
C583        C  0.21438599  0.97130778  0.10031929     0.00060
C584        C  0.18078800  0.96906445  0.11583629    -0.12120
C585        C  0.17884560  0.96866743  0.14909730     0.02550
C586        C  0.21164262  0.97196639  0.16651597    -0.11540
H587        H  0.27106456  0.97253228  0.10627583     0.08140
H588        H  0.15610123  0.96722735  0.10195909     0.05670
H589        H  0.21153690  0.97358026  0.19215919     0.05520
C590        C  0.24050517  0.96700911  0.41189804     0.02560
C591        C  0.20808785  0.96804797  0.39741433    -0.13590
C592        C  0.18043251  0.97372698  0.41525657     0.00060
C593        C  0.18327708  0.97466176  0.44839016    -0.12120
C594        C  0.21414227  0.97118565  0.46348177     0.02550
C595        C  0.24342535  0.96852002  0.44509864    -0.11540
H596        H  0.20509706  0.96558391  0.37184812     0.08140
H597        H  0.16155358  0.97816219  0.46248754     0.05670
H598        H  0.26854005  0.96811318  0.45658261     0.05520
C599        C  0.98256124  0.73747962  0.15193307     0.02560
C600        C  0.98629970  0.74091248  0.11883194    -0.13590
C601        C  0.98622100  0.71003433  0.10070047     0.00060
C602        C  0.98547197  0.67704804  0.11640953    -0.12120
C603        C  0.98316706  0.67399700  0.14959699     0.02550
C604        C  0.97949424  0.70326477  0.16681987    -0.11540
H605        H  0.98887006  0.76739165  0.10724579     0.08140
H606        H  0.98697633  0.65390814  0.10278825     0.05670
H607        H  0.97550171  0.70007410  0.19230694     0.05520
C608        C  0.49243738  0.73960502  0.41174173     0.02560
C609        C  0.49375619  0.74176426  0.44497154    -0.13590
C610        C  0.49002263  0.70925787  0.46328437     0.00060
C611        C  0.48318225  0.67376048  0.44808947    -0.12120
C612        C  0.48212308  0.67128177  0.41491326     0.02550
C613        C  0.48759486  0.70470165  0.39705489    -0.11540
H614        H  0.49781552  0.76875859  0.45656659     0.08140
H615        H  0.47832860  0.64794435  0.46214887     0.05670
H616        H  0.48722843  0.70326457  0.37143059     0.05520
O617        O  0.01458532  0.88289584  0.31763124    -0.88750
C618        C  0.09885759  0.58808466  0.23509806     1.11290
O619        O  0.48051956  0.92990628  0.28247267    -1.36560
O620        O  0.10433064  0.56234113  0.31724086    -0.90240
O621        O  0.44709842  0.84911375  0.32017090    -0.90900
O622        O  0.43783989  0.93009243  0.34943632    -0.79730
O623        O  0.05956010  0.97208232  0.31215491    -1.01810
C624        C  0.48159939  0.54554720  0.33969841     1.21330
O625        O  0.43839524  0.97190321  0.28205192    -1.36710
Mn626      Mn  0.48064541  0.97189414  0.24760917     1.82060
O627        O  0.48082765  0.51396838  0.34876216    -0.78800
O628        O  0.07110447  0.59635494  0.31476734    -0.88200
C629        C  0.47922471  0.54431178  0.22384431     1.12420
C630        C  0.09895530  0.59115645  0.32592011     1.07140
O631        O  0.43902766  0.92956630  0.21557607    -0.79740
O632        O  0.02277749  0.51386901  0.28189168    -1.33430
O633        O  0.40153451  0.89270807  0.25288112    -0.98950
C634        C  0.36164455  0.97187715  0.32661266     1.05850
Mn635      Mn  0.02628206  0.57081070  0.28053688     1.48570
O636        O  0.35548459  0.93817580  0.31609783    -0.88150
Mn637      Mn  0.42665661  0.87298007  0.28356331     1.49560
O638        O  0.01362439  0.88168750  0.24760692    -0.92030
C639        C  0.05376196  0.97248591  0.34051013     1.19050
C640        C  0.47957133  0.85310645  0.23849968     1.11110
Mn641      Mn  0.48036334  0.97184107  0.31663666     1.80970
O642        O  0.48003564  0.54945869  0.25223438    -0.97180
Mn643      Mn  0.03427471  0.92667322  0.28247500     1.49260
C644        C  0.48160667  0.85536585  0.32928305     1.07630
Mn645      Mn  0.43549685  0.52562156  0.28234542     1.49930
C646        C  0.36335428  0.97333586  0.23643848     1.10530
O647        O  0.40148986  0.89424194  0.31188865    -1.02980
O648        O  0.07033473  0.59407176  0.24386222    -0.92640
C649        C  0.40624963  0.89946535  0.34026208     1.21810
O650        O  0.48153066  0.55122239  0.31126217    -1.03370
O651        O  0.10462650  0.56096366  0.24715064    -0.90770
O652        O  0.39109059  0.00611200  0.24781095    -0.90370
O653        O  0.44623112  0.84772206  0.24922702    -0.90400
Mn654      Mn  0.07987118  0.51718210  0.28230827     1.47860
O655        O  0.47991165  0.51358798  0.21451212    -0.78870
C656        C  0.40762042  0.89843445  0.22448085     1.14860
O657        O  0.02202388  0.97162135  0.34914489    -0.77600
O658        O  0.02290009  0.97209719  0.21535977    -0.77220
Mn659      Mn  0.38107032  0.91850960  0.28164324     1.51150
O660        O  0.39109194  0.00557963  0.31766285    -0.89570
O661        O  0.05974947  0.97177527  0.25261429    -0.97100
O662        O  0.35734773  0.93900823  0.24570091    -0.92110
C663        C  0.05385441  0.97147730  0.22420639     1.12650
C664        C  0.47965080  0.57436948  0.36182156    -0.06700
C665        C  0.45574825  0.59097363  0.35266419    -0.17830
C666        C  0.45251994  0.61916616  0.37131402     0.10500
C667        C  0.47689361  0.63459627  0.39857609    -0.06620
C668        C  0.49981574  0.61703654  0.40851505    -0.17860
C669        C  0.50098157  0.58669489  0.39076439     0.10530
S670        S  0.41557920  0.63291480  0.35951980    -0.32820
S671        S  0.03189368  0.56698610  0.40571217    -0.32830
H672        H  0.54512408  0.56163462  0.37613653     0.28540
H673        H  0.40750311  0.64067037  0.39042655     0.28540
H674        H  0.43894459  0.58152457  0.33074731     0.19130
H675        H  0.01843073  0.62824012  0.42952129     0.19130
C676        C  0.48488584  0.82782680  0.35252649    -0.06700
C677        C  0.51351031  0.81595719  0.34590284    -0.17830
C678        C  0.51809156  0.78889300  0.36553575     0.10500
C679        C  0.49266892  0.77213594  0.39221194    -0.06620
C680        C  0.46499058  0.78487090  0.39947411    -0.17860
C681        C  0.46144678  0.81301758  0.38045391     0.10530
S682        S  0.55758390  0.77739029  0.35694701    -0.32820
S683        S  0.42854506  0.83022915  0.39477769    -0.32830
H684        H  0.44847859  0.86799184  0.37964165     0.28540
H685        H  0.57126144  0.79968045  0.32857714     0.28540
H686        H  0.53228246  0.82779381  0.32495519     0.19130
H687        H  0.44580825  0.77267652  0.42021182     0.19130
C688        C  0.47999087  0.57565362  0.20267695    -0.06700
C689        C  0.00262511  0.61567943  0.21327994    -0.17830
C690        C  0.00726622  0.64801476  0.19495469     0.10500
C691        C  0.48475327  0.64067007  0.16673581    -0.06620
C692        C  0.46185138  0.60060443  0.15593945    -0.17860
C693        C  0.45985148  0.56812256  0.17322659     0.10530
S694        S  0.04532388  0.69769034  0.20776369    -0.32820
S695        S  0.42987408  0.51828483  0.15689184    -0.32830
H696        H  0.41674415  0.49792289  0.18593387     0.28540
H697        H  0.05654996  0.71387633  0.17699860     0.28540
H698        H  0.01926758  0.62220837  0.23531506     0.19130
H699        H  0.44454753  0.59436043  0.13429002     0.19130
C700        C  0.47867933  0.82388684  0.21505355    -0.06700
C701        C  0.00957910  0.83701171  0.19225335    -0.17830
C702        C  0.01166081  0.80990656  0.17114250     0.10500
C703        C  0.48110520  0.76877093  0.17170009    -0.06620
C704        C  0.44944463  0.75603986  0.19367086    -0.17860
C705        C  0.44847358  0.78256105  0.21578570     0.10530
S706        S  0.05535967  0.82938940  0.14567150    -0.32820
S707        S  0.40975003  0.76060287  0.24586604    -0.32830
H708        H  0.43625637  0.78078038  0.27110671     0.28540
H709        H  0.05983359  0.79514578  0.14808006     0.28540
H710        H  0.03296325  0.86843001  0.19142283     0.19130
H711        H  0.42606802  0.72453884  0.19455481     0.19130
C712        C  0.48812340  0.71233763  0.06541389    -0.06700
C713        C  0.51574609  0.70427906  0.04970371    -0.17830
C714        C  0.51740785  0.70357119  0.01653014     0.10500
C715        C  0.49115345  0.71157974  0.49840117    -0.06620
C716        C  0.46436704  0.72079260  0.01395467    -0.17860
C717        C  0.46222351  0.72092161  0.04714354     0.10530
S718        S  0.55415229  0.69384506  0.99768695    -0.32820
S719        S  0.92386385  0.72868481  0.06538048    -0.32830
H720        H  0.91365483  0.74289998  0.03811173     0.28540
H721        H  0.56739735  0.68335186  0.52533624     0.28540
H722        H  0.53622140  0.69862135  0.06356918     0.19130
H723        H  0.44389922  0.72630836  0.99993252     0.19130
C724        C  0.27256107  0.96784232  0.39154194    -0.06700
C725        C  0.28952078  0.49790013  0.36803236    -0.17830
C726        C  0.31833843  0.49973237  0.34679554     0.10500
C727        C  0.33216753  0.97181407  0.34945950    -0.06620
C728        C  0.31455828  0.94111458  0.37251224    -0.17860
C729        C  0.28498132  0.93875854  0.39348529     0.10530
S730        S  0.33148199  0.53428383  0.31396079    -0.32820
S731        S  0.26272853  0.89661406  0.42066232    -0.32830
H732        H  0.22375423  0.89165545  0.41984842     0.28540
H733        H  0.37112879  0.55864210  0.32444698     0.28540
H734        H  0.27943884  0.51967727  0.36564963     0.19130
H735        H  0.32280332  0.91793341  0.37349813     0.19130
C736        C  0.14852487  0.97822451  0.39891644    -0.06700
C737        C  0.10817771  0.95480100  0.40894777    -0.17830
C738        C  0.07663210  0.95452660  0.39182017     0.10500
C739        C  0.08515275  0.97612604  0.36294411    -0.06620
C740        C  0.12559035  0.50032459  0.35356674    -0.17860
C741        C  0.15719179  0.50325192  0.37190216     0.10530
S742        S  0.02622139  0.92362701  0.40668601    -0.32820
S743        S  0.20772046  0.54044558  0.35984740    -0.32830
H744        H  0.22398190  0.54811076  0.39060872     0.28540
H745        H  0.01793487  0.95554322  0.40694716     0.28540
H746        H  0.10102425  0.93578759  0.42981024     0.19130
H747        H  0.13288338  0.51764279  0.33178266     0.19130
C748        C  0.27669795  0.97269707  0.17051269    -0.06700
C749        C  0.30167659  0.50766119  0.18759714    -0.17830
C750        C  0.33153347  0.50968171  0.20780329     0.10500
C751        C  0.33612316  0.97523553  0.21199674    -0.06620
C752        C  0.31168803  0.94061178  0.19384701    -0.17860
C753        C  0.28207753  0.93893857  0.17334821     0.10530
S754        S  0.36100340  0.55681491  0.22825899    -0.32820
S755        S  0.25126799  0.89247482  0.15230887    -0.32830
H756        H  0.21557664  0.89449733  0.15285994     0.28540
H757        H  0.39745188  0.56387683  0.21448878     0.28540
H758        H  0.29765702  0.53365935  0.18527861     0.19130
H759        H  0.31484772  0.91418352  0.19617202     0.19130
C760        C  0.14309264  0.96539049  0.16589502    -0.06700
C761        C  0.12728754  0.49002835  0.15640100    -0.17830
C762        C  0.09613194  0.49063690  0.17353404     0.10500
C763        C  0.08200247  0.96812299  0.20193192    -0.06620
C764        C  0.09742407  0.94312107  0.21097293    -0.17860
C765        C  0.12590868  0.93985987  0.19257279     0.10530
S766        S  0.07799004  0.52297450  0.15935764    -0.32820
S767        S  0.13757037  0.90127675  0.20394492    -0.32830
H768        H  0.14542368  0.89354639  0.17295952     0.28540
H769        H  0.03751814  0.49171376  0.15824627     0.28540
H770        H  0.13979765  0.50956602  0.13587298     0.19130
H771        H  0.08669728  0.92522703  0.23244145     0.19130
C772        C  0.21585636  0.97124936  0.49853142    -0.06700
C773        C  0.21831558  0.50432337  0.01484975    -0.17830
C774        C  0.21908539  0.50565938  0.04797582     0.10500
C775        C  0.21681402  0.97296200  0.06537910    -0.06620
C776        C  0.21514796  0.94025745  0.04914581    -0.17860
C777        C  0.21404445  0.93875119  0.01600835     0.10530
S778        S  0.22350104  0.55008570  0.06658432    -0.32820
S779        S  0.20796012  0.89354996  0.49766165    -0.32830
H780        H  0.18363003  0.89325065  0.47256861     0.28540
H781        H  0.24480524  0.54901305  0.09337171     0.28540
H782        H  0.21994685  0.52945469  0.00163650     0.19130
H783        H  0.21312270  0.91500397  0.06243971     0.19130
C784        C  0.37619275  0.86805742  0.36166638    -0.06700
C785        C  0.35760313  0.82816028  0.35055620    -0.17830
C786        C  0.32991011  0.79582595  0.36889435     0.10500
C787        C  0.31593395  0.80322057  0.39772011    -0.06620
C788        C  0.33490664  0.84309454  0.40929585    -0.17860
C789        C  0.36570957  0.87536828  0.39207082     0.10530
S790        S  0.31693212  0.74603876  0.35532470    -0.32820
S791        S  0.38987335  0.92454983  0.41023101    -0.32830
H792        H  0.39467309  0.94654647  0.38226161     0.28540
H793        H  0.31224327  0.72930873  0.38586229     0.28540
H794        H  0.36668282  0.82165841  0.32801456     0.19130
H795        H  0.32526532  0.84940705  0.43162789     0.19130
C796        C  0.12678214  0.62056483  0.34966669    -0.06700
C797        C  0.14595652  0.60819252  0.37181611    -0.17830
C798        C  0.17443862  0.63550960  0.39326758     0.10500
C799        C  0.18302949  0.67602916  0.39365358    -0.06620
C800        C  0.16272968  0.68797779  0.37246034    -0.17860
C801        C  0.13569572  0.66131286  0.35014675     0.10530
S802        S  0.20031221  0.61724369  0.41809949    -0.32820
S803        S  0.11659078  0.68264625  0.32145728    -0.32830
H804        H  0.12521502  0.66552772  0.29524224     0.28540
H805        H  0.23818743  0.65270428  0.41630408     0.28540
H806        H  0.13959006  0.57728169  0.37189393     0.19130
H807        H  0.16949593  0.71907876  0.37230714     0.19130
C808        C  0.37685146  0.87001959  0.20213569    -0.06700
C809        C  0.33618156  0.85493991  0.21018344    -0.17830
C810        C  0.30501008  0.82607575  0.19170300     0.10500
C811        C  0.31424897  0.80872864  0.16581773    -0.06620
C812        C  0.35497698  0.82418630  0.15732089    -0.17860
C813        C  0.38624983  0.85523893  0.17474110     0.10530
S814        S  0.25427266  0.81352815  0.20225177    -0.32820
S815        S  0.43737550  0.87180633  0.16281704    -0.32830
H816        H  0.44777370  0.91254037  0.16009195     0.28540
H817        H  0.23893294  0.80418333  0.17124379     0.28540
H818        H  0.32839683  0.86592845  0.23107834     0.19130
H819        H  0.36257385  0.81116835  0.13758186     0.19130
C820        C  0.19184697  0.67145444  0.17157678    -0.06700
C821        C  0.15120711  0.65793439  0.16450368    -0.17830
C822        C  0.11996185  0.62957986  0.18388243     0.10500
C823        C  0.12943261  0.61557309  0.21175591    -0.06620
C824        C  0.17007488  0.62792888  0.21801952    -0.17860
C825        C  0.20110290  0.65476434  0.19799768     0.10530
S826        S  0.06865453  0.60910923  0.17110023    -0.32820
S827        S  0.25157972  0.66534666  0.20704015    -0.32830
H828        H  0.26518804  0.67179320  0.17543540     0.28540
H829        H  0.07633785  0.63518931  0.14514862     0.28540
H830        H  0.14399628  0.66992202  0.14381032     0.19130
H831        H  0.17786019  0.61654094  0.23881766     0.19130
C832        C  0.24723278  0.73381999  0.49914445    -0.06700
C833        C  0.28106360  0.73693595  0.01482983    -0.17830
C834        C  0.28286809  0.73646602  0.04790960     0.10500
C835        C  0.25023510  0.73307689  0.06599055    -0.06620
C836        C  0.21608360  0.72918886  0.05041750    -0.17860
C837        C  0.21446877  0.73020713  0.01732449     0.10530
S838        S  0.32732580  0.73963101  0.06554226    -0.32820
S839        S  0.17090243  0.72932553  0.50003634    -0.32830
H840        H  0.19209136  0.75606671  0.47502366     0.28540
H841        H  0.30771854  0.71610000  0.09244969     0.28540
H842        H  0.30618619  0.73938074  0.00115792     0.19130
H843        H  0.19114814  0.72700493  0.06420709     0.19130
C844        C  0.22358544  0.70466970  0.65225928     0.02560
C845        C  0.22243655  0.70296921  0.61905335    -0.13590
C846        C  0.25155817  0.73530605  0.60095235     0.00060
C847        C  0.28132744  0.77009649  0.61619215    -0.12120
C848        C  0.28254292  0.77240276  0.64938008     0.02550
C849        C  0.25390067  0.73929036  0.66714077    -0.11540
H850        H  0.19920269  0.67631323  0.60727270     0.08140
H851        H  0.30321856  0.79546118  0.60218247     0.05670
H852        H  0.25488862  0.74064842  0.69278327     0.05520
C853        C  0.21567813  0.70768508  0.91320206     0.02560
C854        C  0.21586820  0.70484715  0.94634082    -0.13590
C855        C  0.24760263  0.73530636  0.96402353     0.00060
C856        C  0.28043099  0.76727180  0.94812859    -0.12120
C857        C  0.28080229  0.77023722  0.91496891     0.02550
C858        C  0.24719569  0.74135812  0.89800931    -0.11540
H859        H  0.19125770  0.67927171  0.95832449     0.08140
H860        H  0.30566753  0.78978677  0.96167924     0.05670
H861        H  0.24607270  0.74432945  0.87253398     0.05520
C862        C  0.24416421  0.97199312  0.65127948     0.02560
C863        C  0.24551176  0.97166457  0.61813701    -0.13590
C864        C  0.21438599  0.97130778  0.60031903     0.00060
C865        C  0.18078807  0.96906450  0.61583611    -0.12120
C866        C  0.17884577  0.96866747  0.64909712     0.02550
C867        C  0.21164280  0.97196635  0.66651572    -0.11540
H868        H  0.27106454  0.97253217  0.60627544     0.08140
H869        H  0.15610129  0.96722745  0.60195897     0.05670
H870        H  0.21153713  0.97358021  0.69215894     0.05520
C871        C  0.24050563  0.96700898  0.91189833     0.02560
C872        C  0.20808828  0.96804776  0.89741462    -0.13590
C873        C  0.18043296  0.97372680  0.91525684     0.00060
C874        C  0.18327754  0.97466165  0.94839043    -0.12120
C875        C  0.21414277  0.97118559  0.96348205     0.02550
C876        C  0.24342585  0.96851995  0.94509893    -0.11540
H877        H  0.20509747  0.96558365  0.87184841     0.08140
H878        H  0.16155404  0.97816209  0.96248779     0.05670
H879        H  0.26854057  0.96811315  0.95658290     0.05520
C880        C  0.98256068  0.73747911  0.65193304     0.02560
C881        C  0.98629871  0.74091175  0.61883186    -0.13590
C882        C  0.98622030  0.71003369  0.60070045     0.00060
C883        C  0.98547170  0.67704763  0.61640952    -0.12120
C884        C  0.98316689  0.67399666  0.64959699     0.02550
C885        C  0.97949404  0.70326442  0.66681987    -0.11540
H886        H  0.98886856  0.76739065  0.60724563     0.08140
H887        H  0.98697627  0.65390785  0.60278822     0.05670
H888        H  0.97550171  0.70007387  0.69230696     0.05520
C889        C  0.49243750  0.73960504  0.91174172     0.02560
C890        C  0.49375642  0.74176427  0.94497153    -0.13590
C891        C  0.49002269  0.70925779  0.96328435     0.00060
C892        C  0.48318204  0.67376033  0.94808940    -0.12120
C893        C  0.48212286  0.67128166  0.91491318     0.02550
C894        C  0.48759481  0.70470162  0.89705485    -0.11540
H895        H  0.49781592  0.76875866  0.95656659     0.08140
H896        H  0.47832819  0.64794410  0.96214877     0.05670
H897        H  0.48722837  0.70326458  0.87143055     0.05520
O898        O  0.01458576  0.88289579  0.81763107    -0.88750
C899        C  0.09885705  0.58808359  0.73509812     1.11290
O900        O  0.48051964  0.92990623  0.78247257    -1.36560
O901        O  0.10433003  0.56234066  0.81724090    -0.90240
O902        O  0.44709854  0.84911373  0.82017083    -0.90900
O903        O  0.43783993  0.93009237  0.84943622    -0.79730
O904        O  0.05956074  0.97208225  0.81215494    -1.01810
C905        C  0.48159920  0.54554724  0.83969812     1.21330
O906        O  0.43839525  0.97190312  0.78205177    -1.36710
Mn907      Mn  0.48064546  0.97189404  0.74760903     1.82060
O908        O  0.48082753  0.51396846  0.84876187    -0.78800
O909        O  0.07110406  0.59635466  0.81476743    -0.88200
C910        C  0.47922455  0.54431173  0.72384404     1.12420
C911        C  0.09895488  0.59115608  0.82592011     1.07140
O912        O  0.43902770  0.92956613  0.71557593    -0.79740
O913        O  0.02277668  0.51386851  0.78189208    -1.33430
O914        O  0.40153462  0.89270801  0.75288104    -0.98950
C915        C  0.36164460  0.97187702  0.82661255     1.05850
Mn916      Mn  0.02628165  0.57081036  0.78053698     1.48570
O917        O  0.35548462  0.93817568  0.81609769    -0.88150
Mn918      Mn  0.42665672  0.87298003  0.78356322     1.49560
O919        O  0.01362466  0.88168756  0.74760676    -0.92030
C920        C  0.05376261  0.97248576  0.84051018     1.19050
C921        C  0.47957146  0.85310644  0.73849963     1.11110
Mn922      Mn  0.48036336  0.97184103  0.81663654     1.80970
O923        O  0.48003546  0.54945863  0.75223410    -0.97180
Mn924      Mn  0.03427517  0.92667324  0.78247493     1.49260
C925        C  0.48160679  0.85536585  0.82928300     1.07630
Mn926      Mn  0.43549665  0.52562149  0.78234513     1.49930
C927        C  0.36335427  0.97333570  0.73643832     1.10530
O928        O  0.40148997  0.89424192  0.81188852    -1.02980
O929        O  0.07033438  0.59407100  0.74386232    -0.92640
C930        C  0.40624970  0.89946528  0.84026195     1.21810
O931        O  0.48153046  0.55122243  0.81126189    -1.03370
O932        O  0.10462572  0.56096245  0.74715074    -0.90770
O933        O  0.39109055  0.00611184  0.74781080    -0.90370
O934        O  0.44623125  0.84772206  0.74922695    -0.90400
Mn935      Mn  0.07987023  0.51718131  0.78230871     1.47860
O936        O  0.47991148  0.51358792  0.71451185    -0.78870
C937        C  0.40762047  0.89843431  0.72448077     1.14860
O938        O  0.02202457  0.97162125  0.84914498    -0.77600
O939        O  0.02290053  0.97209745  0.71535987    -0.77220
Mn940      Mn  0.38107037  0.91850950  0.78164311     1.51150
O941        O  0.39109195  0.00557951  0.81766272    -0.89570
O942        O  0.05974994  0.97177536  0.75261431    -0.97100
O943        O  0.35734774  0.93900808  0.74570075    -0.92110
C944        C  0.05385484  0.97147748  0.72420642     1.12650
C945        C  0.47965057  0.57436949  0.86182129    -0.06700
C946        C  0.45574810  0.59097373  0.85266392    -0.17830
C947        C  0.45251977  0.61916620  0.87131380     0.10500
C948        C  0.47689331  0.63459616  0.89857595    -0.06620
C949        C  0.49981534  0.61703631  0.90851492    -0.17860
C950        C  0.50098120  0.58669472  0.89076420     0.10530
S951        S  0.41557915  0.63291500  0.85951953    -0.32820
S952        S  0.03189305  0.56698588  0.90571222    -0.32830
H953        H  0.54512394  0.56163476  0.87613634     0.28540
H954        H  0.40750300  0.64067054  0.89042627     0.28540
H955        H  0.43894451  0.58152476  0.83074699     0.19130
H956        H  0.01843021  0.62823989  0.92952146     0.19130
C957        C  0.48488597  0.82782682  0.85252646    -0.06700
C958        C  0.51351043  0.81595718  0.84590281    -0.17830
C959        C  0.51809169  0.78889301  0.86553573     0.10500
C960        C  0.49266910  0.77213601  0.89221195    -0.06620
C961        C  0.46499078  0.78487100  0.89947413    -0.17860
C962        C  0.46144695  0.81301763  0.88045390     0.10530
S963        S  0.55758397  0.77739023  0.85694695    -0.32820
S964        S  0.42854523  0.83022921  0.89477768    -0.32830
H965        H  0.44847873  0.86799187  0.87964159     0.28540
H966        H  0.57126149  0.79968037  0.82857707     0.28540
H967        H  0.53228255  0.82779376  0.82495514     0.19130
H968        H  0.44580847  0.77267664  0.92021186     0.19130
C969        C  0.47999077  0.57565359  0.70267670    -0.06700
C970        C  0.00262501  0.61567905  0.71327989    -0.17830
C971        C  0.00726614  0.64801440  0.69495464     0.10500
C972        C  0.48475324  0.64067010  0.66673563    -0.06620
C973        C  0.46185127  0.60060448  0.65593927    -0.17860
C974        C  0.45985133  0.56812257  0.67322637     0.10530
S975        S  0.04532384  0.69768996  0.70776361    -0.32820
S976        S  0.42987376  0.51828485  0.65689166    -0.32830
H977        H  0.41674387  0.49792293  0.68593371     0.28540
H978        H  0.05654982  0.71387597  0.67699852     0.28540
H979        H  0.01926752  0.62220799  0.73531499     0.19130
H980        H  0.44454739  0.59436051  0.63428986     0.19130
C981        C  0.47867944  0.82388683  0.71505349    -0.06700
C982        C  0.00957900  0.83701141  0.69225324    -0.17830
C983        C  0.01166048  0.80990614  0.67114237     0.10500
C984        C  0.48110516  0.76877093  0.67169997    -0.06620
C985        C  0.44944455  0.75603989  0.69367069    -0.17860
C986        C  0.44847357  0.78256109  0.71578556     0.10530
S987        S  0.05535915  0.82938879  0.64567117    -0.32820
S988        S  0.40974992  0.76060292  0.74586583    -0.32830
H989        H  0.43625623  0.78078027  0.77110655     0.28540
H990        H  0.05983295  0.79514509  0.64807965     0.28540
H991        H  0.03296323  0.86842969  0.69142265     0.19130
H992        H  0.42606787  0.72453890  0.69455459     0.19130
C993        C  0.48812324  0.71233762  0.56541383    -0.06700
C994        C  0.51574642  0.70427975  0.54970367    -0.17830
C995        C  0.51740823  0.70357197  0.51653010     0.10500
C996        C  0.49115356  0.71157965  0.99840118    -0.06620
C997        C  0.46436639  0.72079194  0.51395465    -0.17860
C998        C  0.46222284  0.72092088  0.54714352     0.10530
S999        S  0.55415326  0.69384677  0.49768686    -0.32820
S1000       S  0.92386083  0.72868074  0.56538079    -0.32830
H1001       H  0.91364966  0.74289368  0.53811189     0.28540
H1002       H  0.56739558  0.68334923  0.02533630     0.28540
H1003       H  0.53622204  0.69862251  0.56356915     0.19130
H1004       H  0.44389822  0.72630719  0.49993250     0.19130
C1005       C  0.27256151  0.96784225  0.89154219    -0.06700
C1006       C  0.28952016  0.49789956  0.86803195    -0.17830
C1007       C  0.31833805  0.49973207  0.84679525     0.10500
C1008       C  0.33216767  0.97181392  0.84945949    -0.06620
C1009       C  0.31455849  0.94111440  0.87251221    -0.17860
C1010       C  0.28498168  0.93875841  0.89348540     0.10530
S1011       S  0.33148179  0.53428376  0.81396064    -0.32820
S1012       S  0.26272898  0.89661392  0.92066242    -0.32830
H1013       H  0.22375470  0.89165535  0.91984870     0.28540
H1014       H  0.37112852  0.55864197  0.82444704     0.28540
H1015       H  0.27943805  0.51967658  0.86564919     0.19130
H1016       H  0.32280348  0.91793318  0.87349798     0.19130
C1017       C  0.14852536  0.97822434  0.89891667    -0.06700
C1018       C  0.10817818  0.95480076  0.90894792    -0.17830
C1019       C  0.07663261  0.95452631  0.89182022     0.10500
C1020       C  0.08515334  0.97612577  0.86294416    -0.06620
C1021       C  0.12558918  0.50032404  0.85356719    -0.17860
C1022       C  0.15719069  0.50325096  0.87190225     0.10530
S1023       S  0.02622187  0.92362667  0.90668598    -0.32820
S1024       S  0.20771932  0.54044442  0.85984722    -0.32830
H1025       H  0.22398104  0.54810958  0.89060845     0.28540
H1026       H  0.01793537  0.95554289  0.90694723     0.28540
H1027       H  0.10102467  0.93578734  0.92981038     0.19130
H1028       H  0.13288212  0.51764241  0.83178321     0.19130
C1029       C  0.27669810  0.97269697  0.67051234    -0.06700
C1030       C  0.30167562  0.50766050  0.68759743    -0.17830
C1031       C  0.33153273  0.50968118  0.70780340     0.10500
C1032       C  0.33612318  0.97523537  0.71199653    -0.06620
C1033       C  0.31168807  0.94061163  0.69384679    -0.17860
C1034       C  0.28207762  0.93893844  0.67334793     0.10530
S1035       S  0.36100277  0.55681447  0.72825895    -0.32820
S1036       S  0.25126806  0.89247465  0.65230864    -0.32830
H1037       H  0.21557676  0.89449726  0.65285956     0.28540
H1038       H  0.39745115  0.56387643  0.71448849     0.28540
H1039       H  0.29765594  0.53365860  0.68527896     0.19130
H1040       H  0.31484773  0.91418334  0.69617184     0.19130
C1041       C  0.14309288  0.96539060  0.66589490    -0.06700
C1042       C  0.12728598  0.49002672  0.65640159    -0.17830
C1043       C  0.09613048  0.49063531  0.67353475     0.10500
C1044       C  0.08200281  0.96812314  0.70193189    -0.06620
C1045       C  0.09742431  0.94312111  0.71097280    -0.17860
C1046       C  0.12590889  0.93985991  0.69257263     0.10530
S1047       S  0.07798845  0.52297281  0.65935836    -0.32820
S1048       S  0.13757051  0.90127671  0.70394465    -0.32830
H1049       H  0.14542370  0.89354636  0.67295921     0.28540
H1050       H  0.03751662  0.49171193  0.65824683     0.28540
H1051       H  0.13979585  0.50956423  0.63587346     0.19130
H1052       H  0.08669751  0.92522701  0.73244130     0.19130
C1053       C  0.21585685  0.97124937  0.99853169    -0.06700
C1054       C  0.21831557  0.50432360  0.51485034    -0.17830
C1055       C  0.21908490  0.50565920  0.54797643     0.10500
C1056       C  0.21681388  0.97296202  0.56537883    -0.06620
C1057       C  0.21514775  0.94025747  0.54914548    -0.17860
C1058       C  0.21404406  0.93875119  0.51600802     0.10530
S1059       S  0.22350053  0.55008539  0.56658516    -0.32820
S1060       S  0.20796064  0.89354997  0.99766203    -0.32830
H1061       H  0.18363061  0.89325061  0.97256892     0.28540
H1062       H  0.24480434  0.54901232  0.59337267     0.28540
H1063       H  0.21994712  0.52945513  0.50163721     0.19130
H1064       H  0.21312258  0.91500400  0.56243934     0.19130
C1065       C  0.37619286  0.86805723  0.86166619    -0.06700
C1066       C  0.35760336  0.82816014  0.85055592    -0.17830
C1067       C  0.32991042  0.79582571  0.86889400     0.10500
C1068       C  0.31593418  0.80322015  0.89771979    -0.06620
C1069       C  0.33490673  0.84309408  0.90929562    -0.17860
C1070       C  0.36570961  0.87536794  0.89207065     0.10530
S1071       S  0.31693261  0.74603862  0.85532422    -0.32820
S1072       S  0.38987326  0.92454940  0.91023098    -0.32830
H1073       H  0.39467310  0.94654618  0.88226164     0.28540
H1074       H  0.31224379  0.72930848  0.88586177     0.28540
H1075       H  0.36668310  0.82165840  0.82801424     0.19130
H1076       H  0.32526534  0.84940647  0.93162768     0.19130
C1077       C  0.12678198  0.62056446  0.84966652    -0.06700
C1078       C  0.14595621  0.60819200  0.87181596    -0.17830
C1079       C  0.17443857  0.63550905  0.89326729     0.10500
C1080       C  0.18302978  0.67602872  0.89365315    -0.06620
C1081       C  0.16273017  0.68797752  0.87245984    -0.17860
C1082       C  0.13569604  0.66131263  0.85014634     0.10530
S1083       S  0.20031203  0.61724294  0.91809914    -0.32820
S1084       S  0.11659152  0.68264615  0.82145663    -0.32830
H1085       H  0.12521522  0.66552694  0.79524176     0.28540
H1086       H  0.23818735  0.65270339  0.91630364     0.28540
H1087       H  0.13958943  0.57728107  0.87189391     0.19130
H1088       H  0.16949672  0.71907859  0.87230652     0.19130
C1089       C  0.37685145  0.87001929  0.70213571    -0.06700
C1090       C  0.33618156  0.85493957  0.71018356    -0.17830
C1091       C  0.30501003  0.82607514  0.69170332     0.10500
C1092       C  0.31424886  0.80872785  0.66581815    -0.06620
C1093       C  0.35497685  0.82418555  0.65732122    -0.17860
C1094       C  0.38624975  0.85523841  0.67474122     0.10530
S1095       S  0.25427261  0.81352750  0.70225214    -0.32820
S1096       S  0.43737538  0.87180589  0.66281701    -0.32830
H1097       H  0.44777348  0.91253990  0.66009185     0.28540
H1098       H  0.23893284  0.80418261  0.67124419     0.28540
H1099       H  0.32839688  0.86592827  0.73107840     0.19130
H1100       H  0.36257368  0.81116748  0.63758224     0.19130
C1101       C  0.19184668  0.67145356  0.67157705    -0.06700
C1102       C  0.15120685  0.65793362  0.66450393    -0.17830
C1103       C  0.11996152  0.62957896  0.68388256     0.10500
C1104       C  0.12943216  0.61557190  0.71175595    -0.06620
C1105       C  0.17007439  0.62792752  0.71801952    -0.17860
C1106       C  0.20110250  0.65476316  0.69799781     0.10530
S1107       S  0.06865425  0.60910852  0.67110029    -0.32820
S1108       S  0.25157927  0.66534535  0.70704028    -0.32830
H1109       H  0.26518769  0.67179218  0.67543555     0.28540
H1110       H  0.07633764  0.63518930  0.64514917     0.28540
H1111       H  0.14399609  0.66992145  0.64381065     0.19130
H1112       H  0.17785962  0.61653936  0.73881759     0.19130
C1113       C  0.24723292  0.73381954  0.99914405    -0.06700
C1114       C  0.28106339  0.73693611  0.51483013    -0.17830
C1115       C  0.28286784  0.73646581  0.54790990     0.10500
C1116       C  0.25023487  0.73307660  0.56599094    -0.06620
C1117       C  0.21608348  0.72918894  0.55041798    -0.17860
C1118       C  0.21446870  0.73020759  0.51732498     0.10530
S1119       S  0.32732547  0.73963048  0.56554243    -0.32820
S1120       S  0.17090232  0.72932457  0.00003571    -0.32830
H1121       H  0.19209115  0.75606569  0.97502297     0.28540
H1122       H  0.30771815  0.71609929  0.59244978     0.28540
H1123       H  0.30618593  0.73938091  0.50115815     0.19130
H1124       H  0.19114807  0.72700501  0.56420764     0.19130
C1125       C  0.72358647  0.20466970  0.15225952     0.02560
C1126       C  0.72243740  0.20296895  0.11905360    -0.13590
C1127       C  0.75155892  0.23530565  0.10095243     0.00060
C1128       C  0.78132830  0.27009620  0.11619206    -0.12120
C1129       C  0.78254396  0.27240272  0.14937998     0.02550
C1130       C  0.75390184  0.23929042  0.16714084    -0.11540
H1131       H  0.69920343  0.17631290  0.10727310     0.08140
H1132       H  0.80321932  0.29546082  0.10218225     0.05670
H1133       H  0.75488990  0.24064868  0.19278332     0.05520
C1134       C  0.71567872  0.20768496  0.41320207     0.02560
C1135       C  0.71586874  0.20484718  0.44634083    -0.13590
C1136       C  0.74760314  0.23530643  0.46402354     0.00060
C1137       C  0.78043157  0.26727179  0.44812855    -0.12120
C1138       C  0.78080297  0.27023706  0.41496884     0.02550
C1139       C  0.74719639  0.24135787  0.39800925    -0.11540
H1140       H  0.69125819  0.17927180  0.45832453     0.08140
H1141       H  0.80566808  0.28978681  0.46167919     0.05670
H1142       H  0.74607343  0.24432908  0.37253391     0.05520
C1143       C  0.74416384  0.47199292  0.15128015     0.02560
C1144       C  0.74551142  0.47166431  0.11813767    -0.13590
C1145       C  0.71438559  0.47130737  0.10031964     0.00060
C1146       C  0.68078757  0.46906389  0.11583669    -0.12120
C1147       C  0.67884525  0.46866693  0.14909770     0.02550
C1148       C  0.71164236  0.47196606  0.16651633    -0.11540
H1149       H  0.77106427  0.47253203  0.10627613     0.08140
H1150       H  0.65610074  0.46722671  0.10195952     0.05670
H1151       H  0.71153672  0.47358008  0.19215955     0.05520
C1152       C  0.74050516  0.46700820  0.41189830     0.02560
C1153       C  0.70808793  0.46804715  0.39741451    -0.13590
C1154       C  0.68043264  0.47372631  0.41525667     0.00060
C1155       C  0.68327720  0.47466121  0.44839028    -0.12120
C1156       C  0.71414232  0.47118503  0.46348197     0.02550
C1157       C  0.74342531  0.46851917  0.44509889    -0.11540
H1158       H  0.70509722  0.46558307  0.37184829     0.08140
H1159       H  0.66155376  0.47816180  0.46248759     0.05670
H1160       H  0.76853995  0.46811225  0.45658290     0.05520
C1161       C  0.48256808  0.23748272  0.15193438     0.02560
C1162       C  0.48631167  0.24091878  0.11883360    -0.13590
C1163       C  0.48622825  0.21003914  0.10070074     0.00060
C1164       C  0.48547280  0.17704909  0.11640926    -0.12120
C1165       C  0.48316695  0.17399680  0.14959669     0.02550
C1166       C  0.47949564  0.20326499  0.16682006    -0.11540
H1167       H  0.48888935  0.26740175  0.10724893     0.08140
H1168       H  0.48697371  0.15390747  0.10278782     0.05670
H1169       H  0.47550096  0.20007265  0.19230691     0.05520
C1170       C  0.99243841  0.23960538  0.41174121     0.02560
C1171       C  0.99375737  0.24176471  0.44497104    -0.13590
C1172       C  0.99002312  0.20925807  0.46328398     0.00060
C1173       C  0.98318185  0.17376036  0.44808907    -0.12120
C1174       C  0.98212280  0.17128162  0.41491285     0.02550
C1175       C  0.98759529  0.20470173  0.39705443    -0.11540
H1176       H  0.99781728  0.26875930  0.45656602     0.08140
H1177       H  0.97832747  0.14794397  0.46214848     0.05670
H1178       H  0.98722890  0.20326463  0.37143014     0.05520
O1179       O  0.51458556  0.38289640  0.31763183    -0.88750
C1180       C  0.59885767  0.08808425  0.23509850     1.11290
O1181       O  0.98052008  0.42990659  0.28247217    -1.36560
O1182       O  0.60433003  0.06234078  0.31724115    -0.90240
O1183       O  0.94709928  0.34911407  0.32017032    -0.90900
O1184       O  0.93784057  0.43009242  0.34943612    -0.79730
O1185       O  0.55956034  0.47208277  0.31215532    -1.01810
C1186       C  0.98159862  0.04554657  0.33969821     1.21330
O1187       O  0.93839570  0.47190351  0.28205195    -1.36710
Mn1188     Mn  0.98064578  0.47189466  0.24760894     1.82060
O1189       O  0.98082710  0.01396783  0.34876190    -0.78800
O1190       O  0.57110366  0.09635443  0.31476788    -0.88200
C1191       C  0.97922472  0.04431184  0.22384422     1.12420
C1192       C  0.59895454  0.09115593  0.32592057     1.07140
O1193       O  0.93902798  0.42956694  0.21557580    -0.79740
O1194       O  0.52277704  0.01386865  0.28189190    -1.33430
O1195       O  0.90153503  0.39270849  0.25288087    -0.98950
C1196       C  0.86164510  0.47187698  0.32661318     1.05850
Mn1197     Mn  0.52628167  0.07081034  0.28053696     1.48570
O1198       O  0.85548500  0.43817578  0.31609788    -0.88150
Mn1199     Mn  0.92665718  0.37298041  0.28356290     1.49560
O1200       O  0.51362468  0.38168804  0.24760796    -0.92030
C1201       C  0.55376232  0.47248638  0.34051054     1.19050
C1202       C  0.97957120  0.35310660  0.23849860     1.11110
Mn1203     Mn  0.98036394  0.47184123  0.31663643     1.80970
O1204       O  0.98003533  0.04945845  0.25223428    -0.97180
Mn1205     Mn  0.53427489  0.42667366  0.28247563     1.49260
C1206       C  0.98160759  0.35536593  0.32928209     1.07630
Mn1207     Mn  0.93549633  0.02562102  0.28234511     1.49930
C1208       C  0.86335439  0.47333616  0.23643898     1.10530
O1209       O  0.90149049  0.39424212  0.31188841    -1.02980
O1210       O  0.57033491  0.09407153  0.24386266    -0.92640
C1211       C  0.90625030  0.39946536  0.34026184     1.21810
O1212       O  0.98153000  0.05122183  0.31126199    -1.03370
O1213       O  0.60462627  0.06096301  0.24715100    -0.90770
O1214       O  0.89109044  0.50611227  0.24781178    -0.90370
O1215       O  0.94623136  0.34772250  0.24922646    -0.90400
Mn1216     Mn  0.57987071  0.01718169  0.28230876     1.47860
O1217       O  0.97991173  0.01358813  0.21451188    -0.78870
C1218       C  0.90762088  0.39843495  0.22448059     1.14860
O1219       O  0.52202424  0.47162179  0.34914534    -0.77600
O1220       O  0.52289995  0.47209700  0.21536015    -0.77220
Mn1221     Mn  0.88107084  0.41850983  0.28164317     1.51150
O1222       O  0.89109269  0.50557957  0.31766376    -0.89570
O1223       O  0.55974947  0.47177538  0.25261469    -0.97100
O1224       O  0.85734822  0.43900853  0.24570100    -0.92110
C1225       C  0.55385433  0.47147723  0.22420679     1.12650
C1226       C  0.97964985  0.07436879  0.36182136    -0.06700
C1227       C  0.95574769  0.09097331  0.35266377    -0.17830
C1228       C  0.95251959  0.11916608  0.37131347     0.10500
C1229       C  0.97689295  0.13459591  0.39857573    -0.06620
C1230       C  0.99981456  0.11703570  0.40851494    -0.17860
C1231       C  0.00098028  0.08669394  0.39076435     0.10530
S1232       S  0.91557955  0.13291546  0.35951875    -0.32820
S1233       S  0.53188563  0.06698146  0.40571412    -0.32830
H1234       H  0.04512331  0.06163432  0.37613678     0.28540
H1235       H  0.90750331  0.14067133  0.39042536     0.28540
H1236       H  0.93894424  0.08152441  0.33074678     0.19130
H1237       H  0.51842130  0.12823448  0.42952315     0.19130
C1238       C  0.98488691  0.32782699  0.35252560    -0.06700
C1239       C  0.01351125  0.31595718  0.34590194    -0.17830
C1240       C  0.01809257  0.28889311  0.36553498     0.10500
C1241       C  0.99267016  0.27213639  0.39221135    -0.06620
C1242       C  0.96499202  0.28487160  0.39947354    -0.17860
C1243       C  0.96144816  0.31301813  0.38045319     0.10530
S1244       S  0.05758464  0.27739005  0.35694617    -0.32820
S1245       S  0.92854668  0.33022999  0.39477703    -0.32830
H1246       H  0.94848013  0.36799252  0.37964075     0.28540
H1247       H  0.07126238  0.29968036  0.32857638     0.28540
H1248       H  0.03228322  0.32779354  0.32495417     0.19130
H1249       H  0.94580986  0.27267748  0.42021136     0.19130
C1250       C  0.97999120  0.07565394  0.20267704    -0.06700
C1251       C  0.50262458  0.11567862  0.21327939    -0.17830
C1252       C  0.50726562  0.14801389  0.19495416     0.10500
C1253       C  0.98475396  0.14067057  0.16673605    -0.06620
C1254       C  0.96185206  0.10060497  0.15593962    -0.17860
C1255       C  0.95985194  0.06812303  0.17322668     0.10530
S1256       S  0.54532372  0.19768933  0.20776309    -0.32820
S1257       S  0.92987429  0.01828538  0.15689185    -0.32830
H1258       H  0.91674421  0.99792334  0.18593383     0.28540
H1259       H  0.55655041  0.21387491  0.17699793     0.28540
H1260       H  0.51926715  0.12220762  0.23531446     0.19130
H1261       H  0.94454824  0.09436102  0.13429018     0.19130
C1262       C  0.97867797  0.32388634  0.21505239    -0.06700
C1263       C  0.50958211  0.33701374  0.19225509    -0.17830
C1264       C  0.51166614  0.30990923  0.17114504     0.10500
C1265       C  0.98110027  0.26876901  0.17169836    -0.06620
C1266       C  0.94944078  0.25603885  0.19366993    -0.17860
C1267       C  0.94847127  0.28256080  0.21578485     0.10530
S1268       S  0.55536717  0.32939338  0.14567634    -0.32820
S1269       S  0.90974821  0.26060369  0.24586563    -0.32830
H1270       H  0.93625537  0.28078052  0.27110602     0.28540
H1271       H  0.55984181  0.29515028  0.14808627     0.28540
H1272       H  0.53296552  0.36843230  0.19142485     0.19130
H1273       H  0.92606395  0.22453794  0.19455445     0.19130
C1274       C  0.98811541  0.21233175  0.06541398    -0.06700
C1275       C  0.01574911  0.20428919  0.04970391    -0.17830
C1276       C  0.01741184  0.20358319  0.01653033     0.10500
C1277       C  0.99115408  0.21158004  0.49840088    -0.06620
C1278       C  0.96434740  0.22077154  0.01395536    -0.17860
C1279       C  0.96220331  0.22089880  0.04714430     0.10530
S1280       S  0.05417010  0.19387859  0.99768588    -0.32820
S1281       S  0.42390302  0.22873799  0.06537713    -0.32830
H1282       H  0.41372328  0.24298402  0.03811090     0.28540
H1283       H  0.06739225  0.18334452  0.52533625     0.28540
H1284       H  0.03623180  0.19864248  0.06356955     0.19130
H1285       H  0.94387175  0.22627565  0.99993315     0.19130
C1286       C  0.77256114  0.46784148  0.39154227    -0.06700
C1287       C  0.78951987  0.99789867  0.36803204    -0.17830
C1288       C  0.81833759  0.99973112  0.34679519     0.10500
C1289       C  0.83216792  0.47181362  0.34946001    -0.06620
C1290       C  0.81455806  0.44111355  0.37251226    -0.17860
C1291       C  0.78498095  0.43875735  0.39348525     0.10530
S1292       S  0.83148145  0.03428303  0.31396073    -0.32820
S1293       S  0.76272750  0.39661234  0.42066176    -0.32830
H1294       H  0.72375347  0.39165442  0.41984813     0.28540
H1295       H  0.87112797  0.05864138  0.32444754     0.28540
H1296       H  0.77943792  0.01967583  0.36564945     0.19130
H1297       H  0.82280281  0.41793215  0.37349786     0.19130
C1298       C  0.64852508  0.47822396  0.39891649    -0.06700
C1299       C  0.60817792  0.45480063  0.40894787    -0.17830
C1300       C  0.57663238  0.45452653  0.39182038     0.10500
C1301       C  0.58515307  0.47612618  0.36294443    -0.06620
C1302       C  0.62558968  0.00032409  0.35356732    -0.17860
C1303       C  0.65719110  0.00325086  0.37190246     0.10530
S1304       S  0.52622167  0.42362705  0.40668624    -0.32820
S1305       S  0.70771982  0.04044414  0.35984749    -0.32830
H1306       H  0.72398149  0.04810917  0.39060874     0.28540
H1307       H  0.51793530  0.45554336  0.40694754     0.28540
H1308       H  0.60102439  0.43578714  0.42981029     0.19130
H1309       H  0.63288273  0.01764253  0.33178336     0.19130
C1310       C  0.77669778  0.47269695  0.17051310    -0.06700
C1311       C  0.80167555  0.00766008  0.18759708    -0.17830
C1312       C  0.83153264  0.00968080  0.20780307     0.10500
C1313       C  0.83612311  0.47523572  0.21199727    -0.06620
C1314       C  0.81168824  0.44061201  0.19384739    -0.17860
C1315       C  0.78207769  0.43893864  0.17334856     0.10530
S1316       S  0.86100239  0.05681397  0.22825885    -0.32820
S1317       S  0.75126847  0.39247488  0.15230912    -0.32830
H1318       H  0.71557696  0.39449710  0.15286011     0.28540
H1319       H  0.89745092  0.06387617  0.21448851     0.28540
H1320       H  0.79765571  0.03365809  0.18527871     0.19130
H1321       H  0.81484818  0.41418388  0.19617231     0.19130
C1322       C  0.64309233  0.46539004  0.16589546    -0.06700
C1323       C  0.62728662  0.99002706  0.15640132    -0.17830
C1324       C  0.59613135  0.99063592  0.17353461     0.10500
C1325       C  0.58200236  0.46812284  0.20193238    -0.06620
C1326       C  0.59742413  0.44312114  0.21097357    -0.17860
C1327       C  0.62590863  0.43985977  0.19257345     0.10530
S1328       S  0.57798970  0.02297384  0.15935845    -0.32820
S1329       S  0.63757066  0.40127701  0.20394606    -0.32830
H1330       H  0.64542470  0.39354668  0.17296088     0.28540
H1331       H  0.53751776  0.99171320  0.15824685     0.28540
H1332       H  0.63979653  0.00956456  0.13587319     0.19130
H1333       H  0.58669754  0.42522737  0.23244224     0.19130
C1334       C  0.71585638  0.47124888  0.49853164    -0.06700
C1335       C  0.71831552  0.00432271  0.01484977    -0.17830
C1336       C  0.71908493  0.00565850  0.04797586     0.10500
C1337       C  0.71681355  0.47296173  0.06537943    -0.06620
C1338       C  0.71514744  0.44025724  0.04914601    -0.17860
C1339       C  0.71404373  0.43875103  0.01600854     0.10530
S1340       S  0.72350071  0.05008485  0.06658441    -0.32820
S1341       S  0.70796026  0.39354952  0.49766210    -0.32830
H1342       H  0.68363014  0.39325005  0.47256903     0.28540
H1343       H  0.74480453  0.04901187  0.09337195     0.28540
H1344       H  0.71994708  0.02945417  0.00163654     0.19130
H1345       H  0.71312231  0.41500375  0.06243982     0.19130
C1346       C  0.87619349  0.36805722  0.36166607    -0.06700
C1347       C  0.85760413  0.32816011  0.35055584    -0.17830
C1348       C  0.82991122  0.29582563  0.36889394     0.10500
C1349       C  0.81593487  0.30322004  0.39771970    -0.06620
C1350       C  0.83490727  0.34309400  0.40929546    -0.17860
C1351       C  0.86571009  0.37536789  0.39207048     0.10530
S1352       S  0.81693357  0.24603857  0.35532421    -0.32820
S1353       S  0.88987341  0.42454943  0.41023066    -0.32830
H1354       H  0.89467312  0.44654600  0.38226123     0.28540
H1355       H  0.81224469  0.22930846  0.38586178     0.28540
H1356       H  0.86668395  0.32165841  0.32801418     0.19130
H1357       H  0.82526578  0.34940638  0.43162747     0.19130
C1358       C  0.62678161  0.12056424  0.34966705    -0.06700
C1359       C  0.64595583  0.10819172  0.37181646    -0.17830
C1360       C  0.67443855  0.13550882  0.39326757     0.10500
C1361       C  0.68303017  0.17602863  0.39365325    -0.06620
C1362       C  0.66273057  0.18797750  0.37245999    -0.17860
C1363       C  0.63569604  0.16131252  0.35014671     0.10530
S1364       S  0.70031196  0.11724258  0.41809936    -0.32820
S1365       S  0.61659152  0.18264606  0.32145702    -0.32830
H1366       H  0.62521501  0.16552668  0.29524216     0.28540
H1367       H  0.73818738  0.15270288  0.41630372     0.28540
H1368       H  0.63958881  0.07728071  0.37189450     0.19130
H1369       H  0.66949739  0.21907865  0.37230654     0.19130
C1370       C  0.87685204  0.37001988  0.20213545    -0.06700
C1371       C  0.83618210  0.35493997  0.21018320    -0.17830
C1372       C  0.80501072  0.32607536  0.19170297     0.10500
C1373       C  0.81424976  0.30872806  0.16581792    -0.06620
C1374       C  0.85497779  0.32418602  0.15732102    -0.17860
C1375       C  0.88625054  0.35523910  0.17474099     0.10530
S1376       S  0.75427319  0.31352746  0.20225166    -0.32820
S1377       S  0.93737626  0.37180706  0.16281674    -0.32830
H1378       H  0.94777404  0.41254100  0.16009174     0.28540
H1379       H  0.73893353  0.30418241  0.17124368     0.28540
H1380       H  0.82839727  0.36592867  0.23107797     0.19130
H1381       H  0.86257478  0.31116801  0.13758209     0.19130
C1382       C  0.69184763  0.17145386  0.17157746    -0.06700
C1383       C  0.65120784  0.15793418  0.16450435    -0.17830
C1384       C  0.61996242  0.12957976  0.18388304     0.10500
C1385       C  0.62943292  0.11557269  0.21175648    -0.06620
C1386       C  0.67007511  0.12792815  0.21802012    -0.17860
C1387       C  0.70110331  0.15476355  0.19799835     0.10530
S1388       S  0.56865519  0.10910961  0.17110078    -0.32820
S1389       S  0.75157998  0.16534549  0.20704089    -0.32830
H1390       H  0.76518840  0.17179202  0.17543617     0.28540
H1391       H  0.57633875  0.13519023  0.14514950     0.28540
H1392       H  0.64399719  0.16992200  0.14381101     0.19130
H1393       H  0.67786023  0.11653998  0.23881824     0.19130
C1394       C  0.74723338  0.23381962  0.49914409    -0.06700
C1395       C  0.78106371  0.23693538  0.01483013    -0.17830
C1396       C  0.78286831  0.23646524  0.04790989     0.10500
C1397       C  0.75023536  0.23307590  0.06599101    -0.06620
C1398       C  0.71608373  0.22918777  0.05041813    -0.17860
C1399       C  0.71446872  0.23020617  0.01732513     0.10530
S1400       S  0.82732609  0.23963029  0.06554237    -0.32820
S1401       S  0.67090241  0.22932397  0.50003578    -0.32830
H1402       H  0.69209112  0.25606512  0.47502303     0.28540
H1403       H  0.80771883  0.21609872  0.09244958     0.28540
H1404       H  0.80618629  0.23938036  0.00115810     0.19130
H1405       H  0.69114828  0.22700365  0.06420786     0.19130
C1406       C  0.72358577  0.20466972  0.65225903     0.02560
C1407       C  0.72243692  0.20296916  0.61905309    -0.13590
C1408       C  0.75155850  0.23530604  0.60095207     0.00060
C1409       C  0.78132763  0.27009659  0.61619188    -0.12120
C1410       C  0.78254301  0.27240292  0.64937982     0.02550
C1411       C  0.75390086  0.23929047  0.66714050    -0.11540
H1412       H  0.69920316  0.17631311  0.60727247     0.08140
H1413       H  0.80321871  0.29546131  0.60218220     0.05670
H1414       H  0.75488875  0.24064858  0.69278300     0.05520
C1415       C  0.71567767  0.20768458  0.91320259     0.02560
C1416       C  0.71586801  0.20484656  0.94634133    -0.13590
C1417       C  0.74760244  0.23530585  0.96402399     0.00060
C1418       C  0.78043061  0.26727146  0.94812897    -0.12120
C1419       C  0.78080165  0.27023698  0.91496929     0.02550
C1420       C  0.74719498  0.24135778  0.89800980    -0.11540
H1421       H  0.69125768  0.17927101  0.95832505     0.08140
H1422       H  0.80566717  0.28978649  0.96167956     0.05670
H1423       H  0.74607174  0.24432918  0.87253450     0.05520
C1424       C  0.74416381  0.47199333  0.65127987     0.02560
C1425       C  0.74551142  0.47166459  0.61813740    -0.13590
C1426       C  0.71438559  0.47130751  0.60031929     0.00060
C1427       C  0.68078752  0.46906405  0.61583626    -0.12120
C1428       C  0.67884515  0.46866719  0.64909728     0.02550
C1429       C  0.71164228  0.47196646  0.66651597    -0.11540
H1430       H  0.77106430  0.47253228  0.60627593     0.08140
H1431       H  0.65610069  0.46722677  0.60195904     0.05670
H1432       H  0.71153660  0.47358053  0.69215918     0.05520
C1433       C  0.74050514  0.46700916  0.91189869     0.02560
C1434       C  0.70808789  0.46804799  0.89741486    -0.13590
C1435       C  0.68043247  0.47372700  0.91525697     0.00060
C1436       C  0.68327689  0.47466176  0.94839060    -0.12120
C1437       C  0.71414201  0.47118561  0.96348233     0.02550
C1438       C  0.74342517  0.46852000  0.94509928    -0.11540
H1439       H  0.70509725  0.46558395  0.87184864     0.08140
H1440       H  0.66155334  0.47816219  0.96248789     0.05670
H1441       H  0.76853981  0.46811312  0.95658332     0.05520
C1442       C  0.48256795  0.23748259  0.65193439     0.02560
C1443       C  0.48631144  0.24091859  0.61883360    -0.13590
C1444       C  0.48622809  0.21003898  0.60070077     0.00060
C1445       C  0.48547273  0.17704899  0.61640929    -0.12120
C1446       C  0.48316689  0.17399670  0.64959671     0.02550
C1447       C  0.47949558  0.20326490  0.66682008    -0.11540
H1448       H  0.48888899  0.26740150  0.60724891     0.08140
H1449       H  0.48697369  0.15390740  0.60278784     0.05670
H1450       H  0.47550094  0.20007259  0.69230694     0.05520
C1451       C  0.99243381  0.23960390  0.91174307     0.02560
C1452       C  0.99374888  0.24176131  0.94497301    -0.13590
C1453       C  0.99001812  0.20925582  0.96328529     0.00060
C1454       C  0.98318431  0.17376087  0.94809016    -0.12120
C1455       C  0.98212618  0.17128298  0.91491393     0.02550
C1456       C  0.98759556  0.20470228  0.89705591    -0.11540
H1457       H  0.99780385  0.26875366  0.95656864     0.08140
H1458       H  0.97833437  0.14794594  0.96214950     0.05670
H1459       H  0.98723035  0.20326586  0.87143159     0.05520
O1460       O  0.51458565  0.38289653  0.81763164    -0.88750
C1461       C  0.59885756  0.08808410  0.73509827     1.11290
O1462       O  0.98051882  0.42990609  0.78247289    -1.36560
O1463       O  0.60432997  0.06234077  0.81724106    -0.90240
O1464       O  0.94709738  0.34911373  0.82017137    -0.90900
O1465       O  0.93783917  0.43009243  0.84943662    -0.79730
O1466       O  0.55956035  0.47208290  0.81215510    -1.01810
C1467       C  0.98160076  0.04554739  0.83969863     1.21330
O1468       O  0.93839489  0.47190341  0.78205224    -1.36710
Mn1469     Mn  0.98064487  0.47189410  0.74760942     1.82060
O1470       O  0.98082850  0.01396827  0.84876225    -0.78800
O1471       O  0.57110355  0.09635435  0.81476772    -0.88200
C1472       C  0.97922488  0.04431201  0.72384443     1.12420
C1473       C  0.59895439  0.09115585  0.82592049     1.07140
O1474       O  0.93902699  0.42956638  0.71557632    -0.79740
O1475       O  0.52277704  0.01386859  0.78189176    -1.33430
O1476       O  0.90153380  0.39270809  0.75288133    -0.98950
C1477       C  0.86164464  0.47187766  0.82661328     1.05850
Mn1478     Mn  0.52628160  0.07081023  0.78053679     1.48570
O1479       O  0.85548429  0.43817636  0.81609800    -0.88150
Mn1480     Mn  0.92665576  0.37297999  0.78356358     1.49560
O1481       O  0.51362470  0.38168812  0.74760777    -0.92030
C1482       C  0.55376227  0.47248654  0.84051032     1.19050
C1483       C  0.97957034  0.35310597  0.73850004     1.11110
Mn1484     Mn  0.98036288  0.47184099  0.81663692     1.80970
O1485       O  0.98003590  0.04945889  0.75223453    -0.97180
Mn1486     Mn  0.53427491  0.42667377  0.78247541     1.49260
C1487       C  0.98160554  0.35536581  0.82928375     1.07630
Mn1488     Mn  0.93549733  0.02562158  0.78234581     1.49930
C1489       C  0.86335392  0.47333637  0.73643903     1.10530
O1490       O  0.90148927  0.39424222  0.81188881    -1.02980
O1491       O  0.57033479  0.09407137  0.74386244    -0.92640
C1492       C  0.90624884  0.39946548  0.84026225     1.21810
O1493       O  0.98153149  0.05122244  0.81126240    -1.03370
O1494       O  0.60462628  0.06096299  0.74715085    -0.90770
O1495       O  0.89109005  0.50611245  0.74781181    -0.90370
O1496       O  0.94623011  0.34772163  0.74922733    -0.90400
Mn1497     Mn  0.57987073  0.01718169  0.78230865     1.47860
O1498       O  0.97991205  0.01358835  0.71451216    -0.78870
C1499       C  0.90761977  0.39843449  0.72448106     1.14860
O1500       O  0.52202419  0.47162198  0.84914507    -0.77600
O1501       O  0.52289985  0.47209702  0.71535992    -0.77220
Mn1502     Mn  0.88106987  0.41850993  0.78164344     1.51150
O1503       O  0.89109233  0.50558014  0.81766381    -0.89570
O1504       O  0.55974945  0.47177548  0.75261444    -0.97100
O1505       O  0.85734755  0.43900870  0.74570111    -0.92110
C1506       C  0.55385426  0.47147730  0.72420653     1.12650
C1507       C  0.97965360  0.07437040  0.86182189    -0.06700
C1508       C  0.95575016  0.09097386  0.85266541    -0.17830
C1509       C  0.95252273  0.11916686  0.87131524     0.10500
C1510       C  0.97689814  0.13459831  0.89857628    -0.06620
C1511       C  0.99982169  0.11703973  0.90851427    -0.17860
C1512       C  0.00098665  0.08669745  0.89076373     0.10530
S1513       S  0.91558048  0.13291412  0.85952250    -0.32820
S1514       S  0.53188537  0.06698127  0.90571408    -0.32830
H1515       H  0.04512534  0.06163239  0.87613483     0.28540
H1516       H  0.90750490  0.14066876  0.89042971     0.28540
H1517       H  0.93894494  0.08152370  0.83074929     0.19130
H1518       H  0.51842111  0.12823435  0.92952307     0.19130
C1519       C  0.98488441  0.32782694  0.85252764    -0.06700
C1520       C  0.01350977  0.31595817  0.84590514    -0.17830
C1521       C  0.01809037  0.28889377  0.86553829     0.10500
C1522       C  0.99266568  0.27213503  0.89221325    -0.06620
C1523       C  0.96498657  0.28486933  0.89947441    -0.17860
C1524       C  0.96144394  0.31301679  0.88045432     0.10530
S1525       S  0.05758477  0.27739332  0.85695163    -0.32820
S1526       S  0.92854247  0.33022878  0.89477776    -0.32830
H1527       H  0.94847725  0.36799192  0.87964246     0.28540
H1528       H  0.07126424  0.29968491  0.82858254     0.28540
H1529       H  0.03228325  0.32779570  0.82495826     0.19130
H1530       H  0.94580297  0.27267412  0.92021138     0.19130
C1531       C  0.97999089  0.07565382  0.70267708    -0.06700
C1532       C  0.50262452  0.11567846  0.71327932    -0.17830
C1533       C  0.50726557  0.14801376  0.69495413     0.10500
C1534       C  0.98475320  0.14067021  0.66673580    -0.06620
C1535       C  0.96185134  0.10060454  0.65593951    -0.17860
C1536       C  0.95985148  0.06812271  0.67322671     0.10530
S1537       S  0.54532367  0.19768919  0.70776309    -0.32820
S1538       S  0.92987414  0.01828495  0.65689200    -0.32830
H1539       H  0.91674443  0.99792298  0.68593404     0.28540
H1540       H  0.55655034  0.21387480  0.67699794     0.28540
H1541       H  0.51926710  0.12220744  0.73531439     0.19130
H1542       H  0.94454749  0.09436047  0.63429007     0.19130
C1543       C  0.97867848  0.32388650  0.71505378    -0.06700
C1544       C  0.50958205  0.33701369  0.69225496    -0.17830
C1545       C  0.51166604  0.30990913  0.67114495     0.10500
C1546       C  0.98110493  0.26877097  0.67170016    -0.06620
C1547       C  0.94944414  0.25603969  0.69367078    -0.17860
C1548       C  0.94847281  0.28256070  0.71578569     0.10530
S1549       S  0.55536701  0.32939321  0.64567619    -0.32820
S1550       S  0.90974897  0.26060227  0.74586579    -0.32830
H1551       H  0.93625505  0.28077966  0.77110662     0.28540
H1552       H  0.55984167  0.29515013  0.64808614     0.28540
H1553       H  0.53296546  0.36843225  0.69142467     0.19130
H1554       H  0.92606758  0.22453864  0.69455457     0.19130
C1555       C  0.98812382  0.21233813  0.56541371    -0.06700
C1556       C  0.01574560  0.20427820  0.54970353    -0.17830
C1557       C  0.01740736  0.20357022  0.51652994     0.10500
C1558       C  0.99114658  0.21157618  0.99840187    -0.06620
C1559       C  0.96436860  0.22079446  0.51395434    -0.17860
C1560       C  0.96222501  0.22092355  0.54714323     0.10530
S1561       S  0.05415063  0.19384223  0.49768692    -0.32820
S1562       S  0.42390225  0.22873692  0.56537726    -0.32830
H1563       H  0.41372199  0.24298241  0.53811099     0.28540
H1564       H  0.06743223  0.18340450  0.02533583     0.28540
H1565       H  0.03622025  0.19861954  0.56356900     0.19130
H1566       H  0.94390149  0.22631124  0.49993215     0.19130
C1567       C  0.77256119  0.46784256  0.89154269    -0.06700
C1568       C  0.78952066  0.99789913  0.86803228    -0.17830
C1569       C  0.81833870  0.99973175  0.84679569     0.10500
C1570       C  0.83216770  0.47181453  0.84946024    -0.06620
C1571       C  0.81455792  0.44111451  0.87251253    -0.17860
C1572       C  0.78498095  0.43875839  0.89348562     0.10530
S1573       S  0.83148319  0.03428407  0.81396145    -0.32820
S1574       S  0.76272758  0.39661341  0.92066216    -0.32830
H1575       H  0.72375350  0.39165536  0.91984845     0.28540
H1576       H  0.87112955  0.05864220  0.82444864     0.28540
H1577       H  0.77943884  0.01967637  0.86564970     0.19130
H1578       H  0.82280258  0.41793304  0.87349805     0.19130
C1579       C  0.64852492  0.47822457  0.89891669    -0.06700
C1580       C  0.60817773  0.45480118  0.90894797    -0.17830
C1581       C  0.57663221  0.45452693  0.89182032     0.10500
C1582       C  0.58515298  0.47612643  0.86294429    -0.06620
C1583       C  0.62558973  0.00032414  0.85356708    -0.17860
C1584       C  0.65719120  0.00325089  0.87190213     0.10530
S1585       S  0.52622147  0.42362745  0.90668611    -0.32820
S1586       S  0.70771989  0.04044419  0.85984712    -0.32830
H1587       H  0.72398159  0.04810927  0.89060836     0.28540
H1588       H  0.51793510  0.45554376  0.90694732     0.28540
H1589       H  0.60102416  0.43578777  0.92981045     0.19130
H1590       H  0.63288273  0.01764258  0.83178312     0.19130
C1591       C  0.77669768  0.47269735  0.67051290    -0.06700
C1592       C  0.80167657  0.00766102  0.68759747    -0.17830
C1593       C  0.83153361  0.00968172  0.70780355     0.10500
C1594       C  0.83612279  0.47523602  0.71199724    -0.06620
C1595       C  0.81168797  0.44061233  0.69384732    -0.17860
C1596       C  0.78207753  0.43893901  0.67334840     0.10530
S1597       S  0.86100348  0.05681495  0.72825921    -0.32820
S1598       S  0.75126835  0.39247526  0.65230894    -0.32830
H1599       H  0.71557684  0.39449748  0.65285990     0.28540
H1600       H  0.89745203  0.06387677  0.71448922     0.28540
H1601       H  0.79765682  0.03365908  0.68527901     0.19130
H1602       H  0.81484788  0.41418418  0.69617227     0.19130
C1603       C  0.64309217  0.46539018  0.66589501    -0.06700
C1604       C  0.62728717  0.99002730  0.65640148    -0.17830
C1605       C  0.59613169  0.99063597  0.67353462     0.10500
C1606       C  0.58200227  0.46812296  0.70193207    -0.06620
C1607       C  0.59742406  0.44312125  0.71097319    -0.17860
C1608       C  0.62590854  0.43985990  0.69257301     0.10530
S1609       S  0.57798984  0.02297363  0.65935827    -0.32820
S1610       S  0.63757064  0.40127718  0.70394556    -0.32830
H1611       H  0.64542471  0.39354692  0.67296037     0.28540
H1612       H  0.53751797  0.99171286  0.65824668     0.28540
H1613       H  0.63979709  0.00956480  0.63587336     0.19130
H1614       H  0.58669752  0.42522747  0.73244186     0.19130
C1615       C  0.71585596  0.47124921  0.99853199    -0.06700
C1616       C  0.71831566  0.00432284  0.51485006    -0.17830
C1617       C  0.71908532  0.00565879  0.54797614     0.10500
C1618       C  0.71681362  0.47296167  0.56537908    -0.06620
C1619       C  0.71514758  0.44025711  0.54914582    -0.17860
C1620       C  0.71404404  0.43875077  0.51600835     0.10530
S1621       S  0.72350086  0.05008506  0.56658465    -0.32820
S1622       S  0.70795989  0.39354988  0.99766208    -0.32830
H1623       H  0.68362977  0.39325058  0.97256907     0.28540
H1624       H  0.74480494  0.04901237  0.59337211     0.28540
H1625       H  0.71994691  0.02945416  0.50163681     0.19130
H1626       H  0.71312238  0.41500367  0.56243976     0.19130
C1627       C  0.87619168  0.36805743  0.86166636    -0.06700
C1628       C  0.85760191  0.32816040  0.85055588    -0.17830
C1629       C  0.82990920  0.29582586  0.86889399     0.10500
C1630       C  0.81593327  0.30322010  0.89772003    -0.06620
C1631       C  0.83490586  0.34309400  0.90929596    -0.17860
C1632       C  0.86570861  0.37536796  0.89207095     0.10530
S1633       S  0.81693157  0.24603889  0.85532402    -0.32820
S1634       S  0.88987238  0.42454933  0.91023143    -0.32830
H1635       H  0.89467236  0.44654627  0.88226216     0.28540
H1636       H  0.81224335  0.22930877  0.88586152     0.28540
H1637       H  0.86668148  0.32165876  0.82801409     0.19130
H1638       H  0.82526467  0.34940626  0.93162816     0.19130
C1639       C  0.62678123  0.12056405  0.84966713    -0.06700
C1640       C  0.64595551  0.10819153  0.87181649    -0.17830
C1641       C  0.67443797  0.13550853  0.89326779     0.10500
C1642       C  0.68302920  0.17602821  0.89365375    -0.06620
C1643       C  0.66272947  0.18797704  0.87246058    -0.17860
C1644       C  0.63569528  0.16131221  0.85014708     0.10530
S1645       S  0.70031160  0.11724239  0.91809941    -0.32820
S1646       S  0.61659075  0.18264583  0.82145747    -0.32830
H1647       H  0.62521470  0.16552693  0.79524252     0.28540
H1648       H  0.73818691  0.15270284  0.91630383     0.28540
H1649       H  0.63958876  0.07728061  0.87189432     0.19130
H1650       H  0.66949601  0.21907810  0.87230734     0.19130
C1651       C  0.87685094  0.37001952  0.70213586    -0.06700
C1652       C  0.83618097  0.35493973  0.71018346    -0.17830
C1653       C  0.80500963  0.32607529  0.69170306     0.10500
C1654       C  0.81424874  0.30872812  0.66581796    -0.06620
C1655       C  0.85497681  0.32418595  0.65732123    -0.17860
C1656       C  0.88624951  0.35523878  0.67474141     0.10530
S1657       S  0.75427207  0.31352739  0.70225164    -0.32820
S1658       S  0.93737527  0.37180642  0.66281747    -0.32830
H1659       H  0.94777326  0.41254040  0.66009227     0.28540
H1660       H  0.73893251  0.30418245  0.67124363     0.28540
H1661       H  0.82839610  0.36592842  0.73107821     0.19130
H1662       H  0.86257385  0.31116799  0.63758231     0.19130
C1663       C  0.69184706  0.17145363  0.67157686    -0.06700
C1664       C  0.65120722  0.15793371  0.66450382    -0.17830
C1665       C  0.61996194  0.12957928  0.68388261     0.10500
C1666       C  0.62943265  0.11557242  0.71175608    -0.06620
C1667       C  0.67007489  0.12792800  0.71801958    -0.17860
C1668       C  0.70110295  0.15476342  0.69799771     0.10530
S1669       S  0.56865464  0.10910884  0.67110047    -0.32820
S1670       S  0.75157973  0.16534559  0.70704010    -0.32830
H1671       H  0.76518806  0.17179230  0.67543535     0.28540
H1672       H  0.57633798  0.13518923  0.64514907     0.28540
H1673       H  0.64399641  0.16992141  0.64381049     0.19130
H1674       H  0.67786018  0.11653997  0.73881769     0.19130
C1675       C  0.74723290  0.23381890  0.99914452    -0.06700
C1676       C  0.78106410  0.23693617  0.51482991    -0.17830
C1677       C  0.78286846  0.23646598  0.54790969     0.10500
C1678       C  0.75023531  0.23307648  0.56599064    -0.06620
C1679       C  0.71608378  0.22918834  0.55041755    -0.17860
C1680       C  0.71446904  0.23020682  0.51732453     0.10530
S1681       S  0.82732623  0.23963110  0.56554236    -0.32820
S1682       S  0.67090196  0.22932330  0.00003662    -0.32830
H1683       H  0.69209050  0.25606447  0.97502383     0.28540
H1684       H  0.80771894  0.21609983  0.59244968     0.28540
H1685       H  0.80618681  0.23938120  0.50115803     0.19130
H1686       H  0.69114819  0.22700413  0.56420713     0.19130
C1687       C  0.72358616  0.70466930  0.15225906     0.02560
C1688       C  0.72243706  0.70296860  0.11905313    -0.13590
C1689       C  0.75155863  0.73530531  0.10095196     0.00060
C1690       C  0.78132803  0.77009583  0.11619162    -0.12120
C1691       C  0.78254369  0.77240229  0.14937953     0.02550
C1692       C  0.75390156  0.73929000  0.16714037    -0.11540
H1693       H  0.69920308  0.67631258  0.10727261     0.08140
H1694       H  0.80321907  0.79546045  0.10218183     0.05670
H1695       H  0.75488964  0.74064825  0.19278286     0.05520
C1696       C  0.71567809  0.70768458  0.41320240     0.02560
C1697       C  0.71586845  0.70484675  0.44634115    -0.13590
C1698       C  0.74760297  0.73530607  0.46402372     0.00060
C1699       C  0.78043121  0.76727148  0.44812861    -0.12120
C1700       C  0.78080223  0.77023678  0.41496891     0.02550
C1701       C  0.74719550  0.74135757  0.39800950    -0.11540
H1702       H  0.69125806  0.67927134  0.45832494     0.08140
H1703       H  0.80566783  0.78978654  0.46167913     0.05670
H1704       H  0.74607223  0.74432883  0.37253418     0.05520
C1705       C  0.74416326  0.97199221  0.15127949     0.02560
C1706       C  0.74551079  0.97166358  0.11813703    -0.13590
C1707       C  0.71438505  0.97130679  0.10031903     0.00060
C1708       C  0.68078711  0.96906352  0.11583609    -0.12120
C1709       C  0.67884482  0.96866656  0.14909711     0.02550
C1710       C  0.71164191  0.97196556  0.16651571    -0.11540
H1711       H  0.77106357  0.97253115  0.10627548     0.08140
H1712       H  0.65610033  0.96722646  0.10195893     0.05670
H1713       H  0.71153635  0.97357963  0.19215892     0.05520
C1714       C  0.74050496  0.96700799  0.41189824     0.02560
C1715       C  0.70808762  0.96804683  0.39741458    -0.13590
C1716       C  0.68043247  0.97372612  0.41525683     0.00060
C1717       C  0.68327719  0.97466108  0.44839042    -0.12120
C1718       C  0.71414239  0.97118493  0.46348203     0.02550
C1719       C  0.74342532  0.96851908  0.44509884    -0.11540
H1720       H  0.70509672  0.96558265  0.37184838     0.08140
H1721       H  0.66155381  0.97816170  0.46248780     0.05670
H1722       H  0.76854005  0.96811225  0.45658275     0.05520
C1723       C  0.48256753  0.73748243  0.15193428     0.02560
C1724       C  0.48631068  0.74091821  0.11883347    -0.13590
C1725       C  0.48622765  0.71003869  0.10070074     0.00060
C1726       C  0.48547273  0.67704895  0.11640931    -0.12120
C1727       C  0.48316696  0.67399677  0.14959673     0.02550
C1728       C  0.47949553  0.70326494  0.16682006    -0.11540
H1729       H  0.48888774  0.76740085  0.10724868     0.08140
H1730       H  0.48697392  0.65390747  0.10278788     0.05670
H1731       H  0.47550104  0.70007274  0.19230693     0.05520
C1732       C  0.99243441  0.73960445  0.41174325     0.02560
C1733       C  0.99374857  0.74176145  0.44497322    -0.13590
C1734       C  0.99001789  0.70925595  0.46328544     0.00060
C1735       C  0.98318498  0.67376135  0.44809025    -0.12120
C1736       C  0.98212729  0.67128370  0.41491401     0.02550
C1737       C  0.98759673  0.70470305  0.39705605    -0.11540
H1738       H  0.99780290  0.76875352  0.45656894     0.08140
H1739       H  0.97833533  0.64794650  0.46214957     0.05670
H1740       H  0.98723191  0.70326679  0.37143172     0.05520
O1741       O  0.51458566  0.88289638  0.31763172    -0.88750
C1742       C  0.59885756  0.58808419  0.23509843     1.11290
O1743       O  0.98051934  0.92990604  0.28247224    -1.36560
O1744       O  0.60432993  0.56234079  0.31724115    -0.90240
O1745       O  0.94709814  0.84911383  0.32017083    -0.90900
O1746       O  0.93783935  0.93009195  0.34943591    -0.79730
O1747       O  0.55956047  0.97208273  0.31215528    -1.01810
C1748       C  0.98160103  0.54554769  0.33969867     1.21330
O1749       O  0.93839487  0.97190287  0.28205152    -1.36710
Mn1750     Mn  0.98064526  0.97189405  0.24760883     1.82060
O1751       O  0.98082880  0.51396856  0.34876224    -0.78800
O1752       O  0.57110359  0.59635444  0.31476784    -0.88200
C1753       C  0.97922488  0.54431236  0.22384462     1.12420
C1754       C  0.59895442  0.59115591  0.32592058     1.07140
O1755       O  0.93902770  0.92956626  0.21557559    -0.79740
O1756       O  0.52277695  0.51386866  0.28189195    -1.33430
O1757       O  0.90153449  0.89270787  0.25288057    -0.98950
C1758       C  0.86164390  0.97187632  0.32661222     1.05850
Mn1759     Mn  0.52628161  0.57081035  0.28053695     1.48570
O1760       O  0.85548398  0.93817508  0.31609717    -0.88150
Mn1761     Mn  0.92665640  0.87297991  0.28356295     1.49560
O1762       O  0.51362476  0.88168802  0.24760782    -0.92030
C1763       C  0.55376239  0.97248633  0.34051050     1.19050
C1764       C  0.97957069  0.85310594  0.23849908     1.11110
Mn1765     Mn  0.98036292  0.97184069  0.31663632     1.80970
O1766       O  0.98003582  0.54945908  0.25223469    -0.97180
Mn1767     Mn  0.53427500  0.92667364  0.28247553     1.49260
C1768       C  0.98160634  0.85536577  0.32928298     1.07630
Mn1769     Mn  0.93549728  0.52562173  0.28234596     1.49930
C1770       C  0.86335387  0.97333536  0.23643799     1.10530
O1771       O  0.90148956  0.89424175  0.31188808    -1.02980
O1772       O  0.57033481  0.59407149  0.24386260    -0.92640
C1773       C  0.90624907  0.89946501  0.34026152     1.21810
O1774       O  0.98153157  0.55122269  0.31126245    -1.03370
O1775       O  0.60462619  0.56096300  0.24715098    -0.90770
O1776       O  0.89109005  0.00611150  0.24781058    -0.90370
O1777       O  0.94623082  0.84772187  0.24922683    -0.90400
Mn1778     Mn  0.57987061  0.51718170  0.28230879     1.47860
O1779       O  0.97991193  0.51358870  0.21451221    -0.78870
C1780       C  0.90762054  0.89843429  0.22448031     1.14860
O1781       O  0.52202433  0.97162178  0.34914526    -0.77600
O1782       O  0.52290005  0.97209704  0.21536010    -0.77220
Mn1783     Mn  0.88107002  0.91850920  0.28164262     1.51150
O1784       O  0.89109128  0.00557889  0.31766254    -0.89570
O1785       O  0.55974963  0.97177540  0.25261461    -0.97100
O1786       O  0.85734748  0.93900775  0.24570027    -0.92110
C1787       C  0.55385444  0.97147727  0.22420671     1.12650
C1788       C  0.97965417  0.57437084  0.36182196    -0.06700
C1789       C  0.95575075  0.59097436  0.35266559    -0.17830
C1790       C  0.95252364  0.61916758  0.37131538     0.10500
C1791       C  0.97689929  0.63459909  0.39857630    -0.06620
C1792       C  0.99982289  0.61704052  0.40851416    -0.17860
C1793       C  0.00098759  0.58669809  0.39076364     0.10530
S1794       S  0.91558153  0.63291506  0.35952274    -0.32820
S1795       S  0.53188633  0.56698191  0.40571393    -0.32830
H1796       H  0.04512578  0.56163247  0.37613448     0.28540
H1797       H  0.90750602  0.64066966  0.39042999     0.28540
H1798       H  0.93894529  0.58152408  0.33074958     0.19130
H1799       H  0.51842219  0.62823506  0.42952296     0.19130
C1800       C  0.98488534  0.82782719  0.35252715    -0.06700
C1801       C  0.01351102  0.81595869  0.34590511    -0.17830
C1802       C  0.01809162  0.78889452  0.36553857     0.10500
C1803       C  0.99266655  0.77213566  0.39221332    -0.06620
C1804       C  0.96498723  0.78486983  0.39947409    -0.17860
C1805       C  0.96144470  0.81301715  0.38045376     0.10530
S1806       S  0.05758649  0.77739453  0.35695259    -0.32820
S1807       S  0.92854315  0.83022919  0.39477688    -0.32830
H1808       H  0.94847814  0.86799234  0.37964160     0.28540
H1809       H  0.07126653  0.79968639  0.32858366     0.28540
H1810       H  0.03228474  0.82779622  0.32495834     0.19130
H1811       H  0.94580340  0.77267461  0.42021093     0.19130
C1812       C  0.97999123  0.57565437  0.20267744    -0.06700
C1813       C  0.50262458  0.61567863  0.21327944    -0.17830
C1814       C  0.50726566  0.64801392  0.19495421     0.10500
C1815       C  0.98475401  0.64067083  0.16673623    -0.06620
C1816       C  0.96185203  0.60060518  0.15593993    -0.17860
C1817       C  0.95985187  0.56812332  0.17322712     0.10530
S1818       S  0.54532374  0.69768937  0.20776314    -0.32820
S1819       S  0.92987408  0.51828559  0.15689246    -0.32830
H1820       H  0.91674413  0.49792373  0.18593452     0.28540
H1821       H  0.55655038  0.71387497  0.17699798     0.28540
H1822       H  0.51926714  0.62220763  0.23531452     0.19130
H1823       H  0.94454815  0.59436114  0.13429051     0.19130
C1824       C  0.97867749  0.82388581  0.21505277    -0.06700
C1825       C  0.50958188  0.83701356  0.19225490    -0.17830
C1826       C  0.51166570  0.80990899  0.17114479     0.10500
C1827       C  0.98109959  0.76876879  0.17169833    -0.06620
C1828       C  0.94944008  0.75603853  0.19366989    -0.17860
C1829       C  0.94847065  0.78256032  0.21578500     0.10530
S1830       S  0.55536649  0.82939301  0.14567584    -0.32820
S1831       S  0.90974747  0.76060306  0.24586568    -0.32830
H1832       H  0.93625453  0.78077970  0.27110616     0.28540
H1833       H  0.55984114  0.79514992  0.14808569     0.28540
H1834       H  0.53296534  0.86843210  0.19142460     0.19130
H1835       H  0.92606319  0.72453762  0.19455427     0.19130
C1836       C  0.98811497  0.71233152  0.06541406    -0.06700
C1837       C  0.01574941  0.70428994  0.04970409    -0.17830
C1838       C  0.01741240  0.70358422  0.01653052     0.10500
C1839       C  0.99114580  0.71157594  0.49840200    -0.06620
C1840       C  0.96434668  0.72077076  0.01395541    -0.17860
C1841       C  0.96220228  0.72089766  0.04714434     0.10530
S1842       S  0.05417145  0.69388076  0.99768609    -0.32820
S1843       S  0.42389974  0.72873349  0.06537745    -0.32830
H1844       H  0.41371757  0.74297696  0.03811101     0.28540
H1845       H  0.06743734  0.68341227  0.52533591     0.28540
H1846       H  0.03623242  0.69864378  0.06356979     0.19130
H1847       H  0.94387071  0.72627430  0.99993311     0.19130
C1848       C  0.77256079  0.96784124  0.39154202    -0.06700
C1849       C  0.78952080  0.49789930  0.36803263    -0.17830
C1850       C  0.81833890  0.49973196  0.34679608     0.10500
C1851       C  0.83216688  0.97181301  0.34945917    -0.06620
C1852       C  0.81455762  0.94111333  0.37251177    -0.17860
C1853       C  0.78498087  0.93875731  0.39348506     0.10530
S1854       S  0.83148369  0.53428456  0.31396202    -0.32820
S1855       S  0.76272818  0.89661275  0.42066202    -0.32830
H1856       H  0.72375398  0.89165440  0.41984858     0.28540
H1857       H  0.87112986  0.55864269  0.32444963     0.28540
H1858       H  0.77943905  0.51967662  0.36565009     0.19130
H1859       H  0.82280257  0.91793208  0.37349742     0.19130
C1860       C  0.64852498  0.97822390  0.39891669    -0.06700
C1861       C  0.60817780  0.95480058  0.40894800    -0.17830
C1862       C  0.57663231  0.95452648  0.39182043     0.10500
C1863       C  0.58515308  0.97612611  0.36294445    -0.06620
C1864       C  0.62558965  0.50032413  0.35356720    -0.17860
C1865       C  0.65719112  0.50325090  0.37190226     0.10530
S1866       S  0.52622156  0.92362701  0.40668621    -0.32820
S1867       S  0.70771980  0.54044417  0.35984721    -0.32830
H1868       H  0.72398153  0.54810931  0.39060843     0.28540
H1869       H  0.51793521  0.95554333  0.40694746     0.28540
H1870       H  0.60102422  0.93578708  0.42981042     0.19130
H1871       H  0.63288263  0.51764254  0.33178323     0.19130
C1872       C  0.77669717  0.97269615  0.17051236    -0.06700
C1873       C  0.80167603  0.50766084  0.18759793    -0.17830
C1874       C  0.83153306  0.50968157  0.20780403     0.10500
C1875       C  0.83612263  0.97523491  0.21199628    -0.06620
C1876       C  0.81168763  0.94061116  0.19384650    -0.17860
C1877       C  0.78207700  0.93893779  0.17334778     0.10530
S1878       S  0.86100275  0.55681473  0.22825982    -0.32820
S1879       S  0.75126757  0.89247400  0.15230844    -0.32830
H1880       H  0.71557614  0.89449636  0.15285951     0.28540
H1881       H  0.89745133  0.56387688  0.21448963     0.28540
H1882       H  0.79765614  0.53365882  0.18527955     0.19130
H1883       H  0.81484753  0.91418300  0.19617142     0.19130
C1884       C  0.64309200  0.96538976  0.16589497    -0.06700
C1885       C  0.62728689  0.49002724  0.15640169    -0.17830
C1886       C  0.59613144  0.49063596  0.17353481     0.10500
C1887       C  0.58200240  0.96812286  0.20193221    -0.06620
C1888       C  0.59742410  0.94312107  0.21097329    -0.17860
C1889       C  0.62590841  0.93985955  0.19257302     0.10530
S1890       S  0.57798972  0.52297376  0.15935851    -0.32820
S1891       S  0.63757031  0.90127666  0.20394551    -0.32830
H1892       H  0.64542413  0.89354627  0.17296028     0.28540
H1893       H  0.53751781  0.49171307  0.15824690     0.28540
H1894       H  0.63979688  0.50956478  0.13587359     0.19130
H1895       H  0.58669760  0.92522733  0.23244198     0.19130
C1896       C  0.71585659  0.97124881  0.49853170    -0.06700
C1897       C  0.71831516  0.50432321  0.01485047    -0.17830
C1898       C  0.71908497  0.50565905  0.04797655     0.10500
C1899       C  0.71681309  0.97296106  0.06537883    -0.06620
C1900       C  0.71514705  0.94025653  0.04914552    -0.17860
C1901       C  0.71404375  0.93875037  0.01600805     0.10530
S1902       S  0.72350069  0.55008530  0.06658524    -0.32820
S1903       S  0.70796081  0.89354960  0.49766212    -0.32830
H1904       H  0.68363052  0.89324997  0.47256913     0.28540
H1905       H  0.74480481  0.54901244  0.09337261     0.28540
H1906       H  0.71994646  0.52945461  0.00163732     0.19130
H1907       H  0.71312170  0.91500300  0.06243941     0.19130
C1908       C  0.87619194  0.86805699  0.36166563    -0.06700
C1909       C  0.85760219  0.82815993  0.35055525    -0.17830
C1910       C  0.82990961  0.79582544  0.36889349     0.10500
C1911       C  0.81593381  0.80321980  0.39771954    -0.06620
C1912       C  0.83490638  0.84309374  0.40929535    -0.17860
C1913       C  0.86570900  0.87536764  0.39207023     0.10530
S1914       S  0.81693201  0.74603842  0.35532366    -0.32820
S1915       S  0.88987279  0.92454910  0.41023056    -0.32830
H1916       H  0.89467245  0.94654587  0.38226125     0.28540
H1917       H  0.81224381  0.72930842  0.38586120     0.28540
H1918       H  0.86668172  0.82165823  0.32801346     0.19130
H1919       H  0.82526526  0.84940610  0.43162755     0.19130
C1920       C  0.62678133  0.62056410  0.34966717    -0.06700
C1921       C  0.64595555  0.60819152  0.37181653    -0.17830
C1922       C  0.67443811  0.63550851  0.39326777     0.10500
C1923       C  0.68302949  0.67602823  0.39365366    -0.06620
C1924       C  0.66272981  0.68797713  0.37246050    -0.17860
C1925       C  0.63569552  0.66131229  0.35014705     0.10530
S1926       S  0.70031164  0.61724228  0.41809943    -0.32820
S1927       S  0.61659104  0.68264595  0.32145743    -0.32830
H1928       H  0.62521484  0.66552691  0.29524250     0.28540
H1929       H  0.73818702  0.65270264  0.41630380     0.28540
H1930       H  0.63958869  0.57728056  0.37189441     0.19130
H1931       H  0.66949648  0.71907823  0.37230721     0.19130
C1932       C  0.87685175  0.87001927  0.20213512    -0.06700
C1933       C  0.83618181  0.85493940  0.21018282    -0.17830
C1934       C  0.80501045  0.82607487  0.19170253     0.10500
C1935       C  0.81424950  0.80872759  0.16581749    -0.06620
C1936       C  0.85497754  0.82418550  0.15732063    -0.17860
C1937       C  0.88625028  0.85523851  0.17474066     0.10530
S1938       S  0.75427293  0.81352704  0.20225118    -0.32820
S1939       S  0.93737602  0.87180639  0.16281650    -0.32830
H1940       H  0.94777391  0.91254036  0.16009155     0.28540
H1941       H  0.73893330  0.80418203  0.17124318     0.28540
H1942       H  0.82839695  0.86592805  0.23107760     0.19130
H1943       H  0.86257453  0.81116749  0.13758171     0.19130
C1944       C  0.69184735  0.67145347  0.17157704    -0.06700
C1945       C  0.65120754  0.65793380  0.16450402    -0.17830
C1946       C  0.61996218  0.62957951  0.18388283     0.10500
C1947       C  0.62943275  0.61557254  0.21175630    -0.06620
C1948       C  0.67007496  0.62792797  0.21801984    -0.17860
C1949       C  0.70110309  0.65476325  0.19799796     0.10530
S1950       S  0.56865491  0.60910935  0.17110067    -0.32820
S1951       S  0.75157978  0.66534515  0.20704041    -0.32830
H1952       H  0.76518809  0.67179159  0.17543567     0.28540
H1953       H  0.57633840  0.63518992  0.14514937     0.28540
H1954       H  0.64399684  0.66992154  0.14381066     0.19130
H1955       H  0.67786014  0.61653989  0.23881797     0.19130
C1956       C  0.74723342  0.73381931  0.49914426    -0.06700
C1957       C  0.78106384  0.73693536  0.01482974    -0.17830
C1958       C  0.78286823  0.73646505  0.04790951     0.10500
C1959       C  0.75023520  0.73307564  0.06599054    -0.06620
C1960       C  0.71608370  0.72918769  0.05041756    -0.17860
C1961       C  0.71446891  0.73020630  0.01732455     0.10530
S1962       S  0.82732590  0.73962995  0.06554211    -0.32820
S1963       S  0.67090259  0.72932395  0.50003621    -0.32830
H1964       H  0.69209126  0.75606506  0.47502342     0.28540
H1965       H  0.80771846  0.71609824  0.09244921     0.28540
H1966       H  0.80618648  0.73938034  0.00115779     0.19130
H1967       H  0.69114820  0.72700357  0.06420721     0.19130
C1968       C  0.72358649  0.70466976  0.65225925     0.02560
C1969       C  0.72243746  0.70296911  0.61905332    -0.13590
C1970       C  0.75155908  0.73530582  0.60095219     0.00060
C1971       C  0.78132850  0.77009629  0.61619189    -0.12120
C1972       C  0.78254412  0.77240270  0.64937981     0.02550
C1973       C  0.75390192  0.73929040  0.66714061    -0.11540
H1974       H  0.69920346  0.67631314  0.60727277     0.08140
H1975       H  0.80321958  0.79546092  0.60218213     0.05670
H1976       H  0.75488996  0.74064860  0.69278310     0.05520
C1977       C  0.71567811  0.70768464  0.91320209     0.02560
C1978       C  0.71586834  0.70484673  0.94634083    -0.13590
C1979       C  0.74760283  0.73530595  0.96402349     0.00060
C1980       C  0.78043116  0.76727137  0.94812846    -0.12120
C1981       C  0.78080232  0.77023677  0.91496876     0.02550
C1982       C  0.74719562  0.74135763  0.89800926    -0.11540
H1983       H  0.69125787  0.67927132  0.95832456     0.08140
H1984       H  0.80566775  0.78978635  0.96167905     0.05670
H1985       H  0.74607245  0.74432895  0.87253394     0.05520
C1986       C  0.74416420  0.97199307  0.65127990     0.02560
C1987       C  0.74551173  0.97166435  0.61813742    -0.13590
C1988       C  0.71438591  0.97130736  0.60031938     0.00060
C1989       C  0.68078790  0.96906396  0.61583643    -0.12120
C1990       C  0.67884561  0.96866708  0.64909745     0.02550
C1991       C  0.71164275  0.97196627  0.66651608    -0.11540
H1992       H  0.77106456  0.97253200  0.60627590     0.08140
H1993       H  0.65610106  0.96722673  0.60195926     0.05670
H1994       H  0.71153716  0.97358035  0.69215929     0.05520
C1995       C  0.74050519  0.96700811  0.91189807     0.02560
C1996       C  0.70808794  0.96804705  0.89741429    -0.13590
C1997       C  0.68043267  0.97372621  0.91525648     0.00060
C1998       C  0.68327724  0.97466110  0.94839007    -0.12120
C1999       C  0.71414235  0.97118490  0.96348175     0.02550
C2000       C  0.74342535  0.96851906  0.94509866    -0.11540
H2001       H  0.70509721  0.96558298  0.87184808     0.08140
H2002       H  0.66155380  0.97816167  0.96248740     0.05670
H2003       H  0.76853999  0.96811213  0.95658266     0.05520
C2004       C  0.48256742  0.73748242  0.65193416     0.02560
C2005       C  0.48631043  0.74091815  0.61883335    -0.13590
C2006       C  0.48622753  0.71003869  0.60070064     0.00060
C2007       C  0.48547274  0.67704902  0.61640918    -0.12120
C2008       C  0.48316696  0.67399682  0.64959660     0.02550
C2009       C  0.47949553  0.70326497  0.66681994    -0.11540
H2010       H  0.48888730  0.76740071  0.60724853     0.08140
H2011       H  0.48697402  0.65390760  0.60278773     0.05670
H2012       H  0.47550109  0.70007280  0.69230682     0.05520
C2013       C  0.99243526  0.73960488  0.91174323     0.02560
C2014       C  0.99374975  0.74176206  0.94497319    -0.13590
C2015       C  0.99001867  0.70925642  0.96328545     0.00060
C2016       C  0.98318504  0.67376156  0.94809030    -0.12120
C2017       C  0.98212727  0.67128386  0.91491408     0.02550
C2018       C  0.98759708  0.70470330  0.89705608    -0.11540
H2019       H  0.99780453  0.76875432  0.95656885     0.08140
H2020       H  0.97833495  0.64794656  0.96214963     0.05670
H2021       H  0.98723214  0.70326697  0.87143175     0.05520
O2022       O  0.51458577  0.88289639  0.81763168    -0.88750
C2023       C  0.59885748  0.58808432  0.73509821     1.11290
O2024       O  0.98051987  0.92990622  0.78247237    -1.36560
O2025       O  0.60432979  0.56234091  0.81724088    -0.90240
O2026       O  0.94709860  0.84911401  0.82017094    -0.90900
O2027       O  0.93784000  0.93009216  0.84943618    -0.79730
O2028       O  0.55956048  0.97208274  0.81215517    -1.01810
C2029       C  0.98160052  0.54554778  0.83969875     1.21330
O2030       O  0.93839566  0.97190330  0.78205188    -1.36710
Mn2031     Mn  0.98064583  0.97189434  0.74760905     1.82060
O2032       O  0.98082795  0.51396856  0.84876246    -0.78800
O2033       O  0.57110341  0.59635454  0.81476758    -0.88200
C2034       C  0.97922450  0.54431194  0.72384471     1.12420
C2035       C  0.59895426  0.59115602  0.82592031     1.07140
O2036       O  0.93902819  0.92956663  0.71557583    -0.79740
O2037       O  0.52277684  0.51386872  0.78189168    -1.33430
O2038       O  0.90153504  0.89270825  0.75288082    -0.98950
C2039       C  0.86164498  0.97187687  0.82661284     1.05850
Mn2040     Mn  0.52628144  0.57081039  0.78053668     1.48570
O2041       O  0.85548475  0.93817569  0.81609742    -0.88150
Mn2042     Mn  0.92665688  0.87298015  0.78356313     1.49560
O2043       O  0.51362490  0.88168800  0.74760777    -0.92030
C2044       C  0.55376243  0.97248635  0.84051038     1.19050
C2045       C  0.97957089  0.85310595  0.73849906     1.11110
Mn2046     Mn  0.98036368  0.97184089  0.81663656     1.80970
O2047       O  0.98003544  0.54945878  0.75223477    -0.97180
Mn2048     Mn  0.53427509  0.92667363  0.78247546     1.49260
C2049       C  0.98160681  0.85536583  0.82928293     1.07630
Mn2050     Mn  0.93549688  0.52562186  0.78234601     1.49930
C2051       C  0.86335464  0.97333612  0.73643864     1.10530
O2052       O  0.90149017  0.89424210  0.81188832    -1.02980
O2053       O  0.57033469  0.59407158  0.74386235    -0.92640
C2054       C  0.90624967  0.89946526  0.84026177     1.21810
O2055       O  0.98153116  0.55122274  0.81126252    -1.03370
O2056       O  0.60462608  0.56096310  0.74715073    -0.90770
O2057       O  0.89109057  0.00611218  0.74781159    -0.90370
O2058       O  0.94623110  0.84772195  0.74922695    -0.90400
Mn2059     Mn  0.57987053  0.51718180  0.78230853     1.47860
O2060       O  0.97991137  0.51358813  0.71451244    -0.78870
C2061       C  0.90762105  0.89843466  0.72448056     1.14860
O2062       O  0.52202436  0.97162179  0.84914517    -0.77600
O2063       O  0.52290017  0.97209695  0.71535997    -0.77220
Mn2064     Mn  0.88107075  0.91850972  0.78164291     1.51150
O2065       O  0.89109270  0.00557945  0.81766357    -0.89570
O2066       O  0.55974969  0.97177538  0.75261453    -0.97100
O2067       O  0.85734846  0.93900846  0.74570055    -0.92110
C2068       C  0.55385457  0.97147722  0.72420662     1.12650
C2069       C  0.97965381  0.57437104  0.86182197    -0.06700
C2070       C  0.95575056  0.59097471  0.85266555    -0.17830
C2071       C  0.95252345  0.61916787  0.87131541     0.10500
C2072       C  0.97689898  0.63459916  0.89857640    -0.06620
C2073       C  0.99982242  0.61704043  0.90851429    -0.17860
C2074       C  0.00098710  0.58669805  0.89076371     0.10530
S2075       S  0.91558153  0.63291560  0.85952275    -0.32820
S2076       S  0.53188584  0.56698162  0.90571374    -0.32830
H2077       H  0.04512529  0.56163246  0.87613451     0.28540
H2078       H  0.90750608  0.64067030  0.89042998     0.28540
H2079       H  0.93894522  0.58152460  0.83074949     0.19130
H2080       H  0.51842170  0.62823470  0.92952289     0.19130
C2081       C  0.98488586  0.82782728  0.85252707    -0.06700
C2082       C  0.01351149  0.81595874  0.84590495    -0.17830
C2083       C  0.01809222  0.78889468  0.86553843     0.10500
C2084       C  0.99266737  0.77213603  0.89221331    -0.06620
C2085       C  0.96498807  0.78487019  0.89947414    -0.17860
C2086       C  0.96144535  0.81301735  0.88045375     0.10530
S2087       S  0.05758691  0.77739448  0.85695227    -0.32820
S2088       S  0.92854368  0.83022925  0.89477685    -0.32830
H2089       H  0.94847861  0.86799241  0.87964159     0.28540
H2090       H  0.07126661  0.79968602  0.82858318     0.28540
H2091       H  0.03228507  0.82779616  0.82495810     0.19130
H2092       H  0.94580435  0.77267505  0.92021105     0.19130
C2093       C  0.97999101  0.57565397  0.70267745    -0.06700
C2094       C  0.50262456  0.61567859  0.71327921    -0.17830
C2095       C  0.50726566  0.64801391  0.69495400     0.10500
C2096       C  0.98475387  0.64067048  0.66673621    -0.06620
C2097       C  0.96185182  0.60060482  0.65593995    -0.17860
C2098       C  0.95985160  0.56812293  0.67322715     0.10530
S2099       S  0.54532380  0.69768933  0.70776294    -0.32820
S2100       S  0.92987365  0.51828519  0.65689256    -0.32830
H2101       H  0.91674372  0.49792337  0.68593463     0.28540
H2102       H  0.55655040  0.71387496  0.67699779     0.28540
H2103       H  0.51926713  0.62220755  0.73531428     0.19130
H2104       H  0.94454790  0.59436079  0.63429055     0.19130
C2105       C  0.97867750  0.82388568  0.71505275    -0.06700
C2106       C  0.50958204  0.83701351  0.69225489    -0.17830
C2107       C  0.51166578  0.80990893  0.67114475     0.10500
C2108       C  0.98109919  0.76876839  0.67169830    -0.06620
C2109       C  0.94943984  0.75603828  0.69366998    -0.17860
C2110       C  0.94847059  0.78256020  0.71578507     0.10530
S2111       S  0.55536661  0.82939287  0.64567584    -0.32820
S2112       S  0.90974751  0.76060312  0.74586585    -0.32830
H2113       H  0.93625471  0.78077975  0.77110626     0.28540
H2114       H  0.55984105  0.79514964  0.64808558     0.28540
H2115       H  0.53296560  0.86843203  0.69142466     0.19130
H2116       H  0.92606293  0.72453739  0.69455447     0.19130
C2117       C  0.98811408  0.71233076  0.56541405    -0.06700
C2118       C  0.01574942  0.70429054  0.54970404    -0.17830
C2119       C  0.01741246  0.70358500  0.51653045     0.10500
C2120       C  0.99114672  0.71157651  0.99840200    -0.06620
C2121       C  0.96434472  0.72076871  0.51395546    -0.17860
C2122       C  0.96220035  0.72089548  0.54714441     0.10530
S2123       S  0.05417273  0.69388348  0.49768587    -0.32820
S2124       S  0.42389849  0.72873178  0.56537753    -0.32830
H2125       H  0.41371519  0.74297406  0.53811099     0.28540
H2126       H  0.06743427  0.68340753  0.02533610     0.28540
H2127       H  0.03623308  0.69864531  0.56356973     0.19130
H2128       H  0.94386806  0.72627125  0.49993320     0.19130
C2129       C  0.77256114  0.96784140  0.89154201    -0.06700
C2130       C  0.78952084  0.49790040  0.86803307    -0.17830
C2131       C  0.81833881  0.49973298  0.84679642     0.10500
C2132       C  0.83216782  0.97181351  0.84945967    -0.06620
C2133       C  0.81455810  0.94111352  0.87251200    -0.17860
C2134       C  0.78498104  0.93875734  0.89348503     0.10530
S2135       S  0.83148350  0.53428558  0.81396236    -0.32820
S2136       S  0.76272775  0.89661241  0.92066163    -0.32830
H2137       H  0.72375367  0.89165435  0.91984799     0.28540
H2138       H  0.87112992  0.55864334  0.82444954     0.28540
H2139       H  0.77943912  0.51967775  0.86565059     0.19130
H2140       H  0.82280291  0.91793217  0.87349761     0.19130
C2141       C  0.64852513  0.97822389  0.89891633    -0.06700
C2142       C  0.60817797  0.95480056  0.90894770    -0.17830
C2143       C  0.57663245  0.95452649  0.89182023     0.10500
C2144       C  0.58515316  0.97612617  0.86294428    -0.06620
C2145       C  0.62558957  0.50032442  0.85356715    -0.17860
C2146       C  0.65719100  0.50325140  0.87190237     0.10530
S2147       S  0.52622174  0.92362703  0.90668609    -0.32820
S2148       S  0.70771969  0.54044481  0.85984743    -0.32830
H2149       H  0.72398128  0.54811002  0.89060870     0.28540
H2150       H  0.51793537  0.95554334  0.90694735     0.28540
H2151       H  0.60102444  0.93578704  0.92981011     0.19130
H2152       H  0.63288260  0.51764275  0.83178313     0.19130
C2153       C  0.77669812  0.97269705  0.67051282    -0.06700
C2154       C  0.80167588  0.50766122  0.68759776    -0.17830
C2155       C  0.83153281  0.50968190  0.70780395     0.10500
C2156       C  0.83612347  0.97523577  0.71199689    -0.06620
C2157       C  0.81168841  0.94061199  0.69384714    -0.17860
C2158       C  0.78207783  0.93893864  0.67334837     0.10530
S2159       S  0.86100244  0.55681501  0.72825983    -0.32820
S2160       S  0.75126829  0.89247476  0.65230917    -0.32830
H2161       H  0.71557690  0.89449720  0.65286024     0.28540
H2162       H  0.89745107  0.56387717  0.71448971     0.28540
H2163       H  0.79765603  0.53365922  0.68527935     0.19130
H2164       H  0.81484820  0.91418377  0.69617214     0.19130
C2165       C  0.64309269  0.96539017  0.66589525    -0.06700
C2166       C  0.62728668  0.49002736  0.65640129    -0.17830
C2167       C  0.59613127  0.49063607  0.67353449     0.10500
C2168       C  0.58200266  0.96812289  0.70193221    -0.06620
C2169       C  0.59742450  0.94312125  0.71097340    -0.17860
C2170       C  0.62590905  0.93985993  0.69257328     0.10530
S2171       S  0.57798954  0.52297390  0.65935828    -0.32820
S2172       S  0.63757116  0.90127724  0.70394589    -0.32830
H2173       H  0.64542503  0.89354681  0.67296070     0.28540
H2174       H  0.53751763  0.49171321  0.65824669     0.28540
H2175       H  0.63979662  0.50956490  0.63587318     0.19130
H2176       H  0.58669793  0.92522747  0.73244207     0.19130
C2177       C  0.71585632  0.97124863  0.99853140    -0.06700
C2178       C  0.71831557  0.50432298  0.51484996    -0.17830
C2179       C  0.71908520  0.50565895  0.54797604     0.10500
C2180       C  0.71681388  0.97296155  0.56537916    -0.06620
C2181       C  0.71514800  0.94025708  0.54914587    -0.17860
C2182       C  0.71404443  0.93875076  0.51600839     0.10530
S2183       S  0.72350087  0.55008530  0.56658450    -0.32820
S2184       S  0.70795997  0.89354919  0.99766171    -0.32830
H2185       H  0.68362999  0.89324987  0.97256859     0.28540
H2186       H  0.74480484  0.54901253  0.59337201     0.28540
H2187       H  0.71994695  0.52945434  0.50163668     0.19130
H2188       H  0.71312292  0.91500368  0.56243978     0.19130
C2189       C  0.87619245  0.86805716  0.86166581    -0.06700
C2190       C  0.85760269  0.82816013  0.85055534    -0.17830
C2191       C  0.82990995  0.79582558  0.86889346     0.10500
C2192       C  0.81593402  0.80321984  0.89771949    -0.06620
C2193       C  0.83490661  0.84309374  0.90929540    -0.17860
C2194       C  0.86570936  0.87536769  0.89207040     0.10530
S2195       S  0.81693229  0.74603859  0.85532351    -0.32820
S2196       S  0.88987310  0.92454908  0.91023084    -0.32830
H2197       H  0.89467294  0.94654595  0.88226155     0.28540
H2198       H  0.81224390  0.72930843  0.88586102     0.28540
H2199       H  0.86668230  0.82165849  0.82801356     0.19130
H2200       H  0.82526541  0.84940603  0.93162758     0.19130
C2201       C  0.62678119  0.62056421  0.84966690    -0.06700
C2202       C  0.64595533  0.60819158  0.87181630    -0.17830
C2203       C  0.67443794  0.63550856  0.89326750     0.10500
C2204       C  0.68302951  0.67602835  0.89365330    -0.06620
C2205       C  0.66272990  0.68797730  0.87246011    -0.17860
C2206       C  0.63569550  0.66131245  0.85014673     0.10530
S2207       S  0.70031129  0.61724222  0.91809925    -0.32820
S2208       S  0.61659100  0.68264611  0.82145712    -0.32830
H2209       H  0.62521469  0.66552698  0.79524219     0.28540
H2210       H  0.73818676  0.65270247  0.91630359     0.28540
H2211       H  0.63958833  0.57728059  0.87189424     0.19130
H2212       H  0.66949667  0.71907843  0.87230678     0.19130
C2213       C  0.87685224  0.87001965  0.70213539    -0.06700
C2214       C  0.83618231  0.85493981  0.71018310    -0.17830
C2215       C  0.80501094  0.82607526  0.69170284     0.10500
C2216       C  0.81424996  0.80872795  0.66581780    -0.06620
C2217       C  0.85497800  0.82418584  0.65732093    -0.17860
C2218       C  0.88625075  0.85523887  0.67474094     0.10530
S2219       S  0.75427343  0.81352744  0.70225151    -0.32820
S2220       S  0.93737648  0.87180675  0.66281673    -0.32830
H2221       H  0.94777435  0.91254072  0.66009179     0.28540
H2222       H  0.73893380  0.80418249  0.67124351     0.28540
H2223       H  0.82839748  0.86592851  0.73107787     0.19130
H2224       H  0.86257497  0.81116782  0.63758200     0.19130
C2225       C  0.69184758  0.67145391  0.67157716    -0.06700
C2226       C  0.65120780  0.65793429  0.66450404    -0.17830
C2227       C  0.61996234  0.62957989  0.68388273     0.10500
C2228       C  0.62943277  0.61557278  0.71175618    -0.06620
C2229       C  0.67007495  0.62792819  0.71801983    -0.17860
C2230       C  0.70110319  0.65476356  0.69799807     0.10530
S2231       S  0.56865513  0.60910980  0.67110043    -0.32820
S2232       S  0.75157982  0.66534539  0.70704064    -0.32830
H2233       H  0.76518826  0.67179189  0.67543592     0.28540
H2234       H  0.57633875  0.63519052  0.64514921     0.28540
H2235       H  0.64399720  0.66992213  0.64381069     0.19130
H2236       H  0.67786003  0.61654000  0.73881796     0.19130
C2237       C  0.74723316  0.73381903  0.99914403    -0.06700
C2238       C  0.78106418  0.73693578  0.51482994    -0.17830
C2239       C  0.78286867  0.73646560  0.54790971     0.10500
C2240       C  0.75023565  0.73307619  0.56599077    -0.06620
C2241       C  0.71608410  0.72918816  0.55041781    -0.17860
C2242       C  0.71446922  0.73020664  0.51732481     0.10530
S2243       S  0.82732641  0.73963066  0.56554228    -0.32820
S2244       S  0.67090234  0.72932370  0.00003592    -0.32830
H2245       H  0.69209108  0.75606490  0.97502320     0.28540
H2246       H  0.80771905  0.71609891  0.59244938     0.28540
H2247       H  0.80618680  0.73938074  0.50115797     0.19130
H2248       H  0.69114862  0.72700405  0.56420749     0.19130
loop_ 
_geom_bond_atom_site_label_1 
_geom_bond_atom_site_label_2 
_geom_bond_distance 
_geom_bond_site_symmetry_2 
_ccdc_geom_bond_type 
C1            C2   1.403       .  A
C1            C6   1.402       .  A
C1          C258   1.483       .  S
C2            C3   1.403       .  A
C2            H7   1.084       .  S
C3            C4   1.405       .  A
C3          C273   1.478       .  S
C4            C5   1.403       .  A
C4            H8   1.084       .  S
C5            C6   1.403       .  A
C5          C249   1.485       .  S
C6            H9   1.083       .  S
C10          C11   1.402       .  A
C10          C15   1.401       .  A
C10         C237   1.484       .  S
C11          C12   1.408       .  A
C11          H16   1.083       .  S
C12          C13   1.407       .  A
C12         C270   1.483       .  S
C13          C14   1.403       .  A
C13          H17   1.083       .  S
C14          C15   1.404       .  A
C14         C225   1.491       .  S
C15          H18   1.084       .  S
C19          C20   1.400       .  A
C19          C24   1.400       .  A
C19         C186   1.475       .  S
C20          C21   1.403       .  A
C20          H25   1.084       .  S
C21          C22   1.406       .  A
C21         C213   1.476       .  S
C22          C23   1.405       .  A
C22          H26   1.083       .  S
C23          C24   1.405       .  A
C23         C198   1.489       .  S
C24          H27   1.084       .  S
C28          C29   1.401       .  A
C28          C33   1.405       .  A
C28         C162   1.484       .  S
C29          C30   1.401       .  A
C29          H34   1.084       .  S
C30          C31   1.402       .  A
C30         C174   1.485       .  S
C31          C32   1.405       .  A
C31          H35   1.083       .  S
C32          C33   1.408       .  A
C32         C210   1.480       .  S
C33          H36   1.083       .  S
C37          C38   1.403       .  A
C37          C42   1.400       .  A
C37        C1265   1.485       .  S
C38          C39   1.409       .  A
C38          H43   1.082       .  S
C39          C40   1.410       .  A
C39        C1274   1.491       .  S
C40          C41   1.404       .  A
C40          H44   1.083       .  S
C41          C42   1.402       .  A
C41        C1253   1.490       .  S
C42          H45   1.084       .  S
C46          C47   1.404       .  A
C46          C51   1.400       .  A
C46         C117   1.486       .  S
C47          C48   1.406       .  A
C47          H52   1.083       .  S
C48          C49   1.405       .  A
C48         C153   1.484       .  S
C49          C50   1.403       .  A
C49          H53   1.083       .  S
C50          C51   1.404       .  A
C50         C105   1.487       .  S
C51          H54   1.083       .  S
O55         Mn81   2.071       .  S
O55        C1206   1.268   1_455  A
C56         C261   1.485       .  S
C56          O89   1.268       .  A
C56          O86   1.277       .  A
O57         Mn64   2.172       .  S
O57         Mn75   2.121       .  S
O57         Mn79   2.163       .  S
O57       Mn1205   2.121       .  S
O58         Mn92   2.107       .  S
O58          C68   1.273       .  A
O59         Mn75   2.129       .  S
O59          C82   1.278       .  A
O60         Mn79   2.120       .  S
O60          C87   1.253       .  A
O61         Mn81   1.965       .  S
O61        Mn654   1.951       .  S
O61          C77   1.218       .  S
C62         C102   1.478       .  S
C62          O65   1.252       .  A
C62          O88   1.219       .  S
O63         Mn64   2.173       .  S
O63         Mn97   2.121       .  S
O63         Mn79   2.171       .  S
O63        Mn645   2.112       .  S
Mn64         O69   2.104       .  S
Mn64        O655   2.126       .  S
Mn64       O1220   2.110       .  S
Mn64       O1756   2.168       .  S
O65        Mn641   2.103   1_545  S
O66         Mn73   2.078       .  S
O66          C68   1.268       .  A
C67         C126   1.480       .  S
C67          O93   1.254       .  A
C67          O80   1.213       .  S
C68         C234   1.488       .  S
O69          C94   1.252       .  A
O70         Mn73   2.115       .  S
O70         Mn92   2.123       .  S
O70       Mn1750   2.168   1_445  S
O70       Mn1765   2.176   1_445  S
O71         Mn75   1.972       .  S
O71         Mn97   1.960       .  S
O71          C94   1.219       .  S
C72         C165   1.482       .  S
C72          O98   1.271       .  A
C72          O74   1.271       .  A
Mn73         O86   2.124       .  S
Mn73       O1212   1.970   1_455  S
Mn73       O1204   1.946   1_455  S
O74         Mn97   2.093       .  S
Mn75         O91   2.080       .  S
Mn75         O85   1.951       .  S
O76         Mn81   2.101       .  S
O76        C1202   1.272   1_455  A
C77         C177   1.481       .  S
C77          O95   1.252       .  A
C78         C138   1.483       .  S
C78          O91   1.269       .  A
C78        O1200   1.272       .  A
Mn79        O627   2.103       .  S
Mn79       O1219   2.106       .  S
Mn79       O1756   2.176       .  S
O80         Mn83   1.945       .  S
O80       Mn1197   1.946       .  S
Mn81       O1181   2.121   1_455  S
Mn81         O99   1.953       .  S
C82         C114   1.487       .  S
C82        O1179   1.268       .  A
Mn83        O652   2.076       .  S
Mn83        O660   2.093       .  S
Mn83        O625   2.112   1_545  S
Mn83         O88   1.958       .  S
C84         C189   1.493       .  S
C84          O90   1.266       .  A
C84         O100   1.274       .  A
O85         Mn97   1.954       .  S
O85          C87   1.213       .  S
C87         C222   1.480       .  S
O88       Mn1197   1.970       .  S
O89         Mn92   2.072       .  S
O90        Mn645   2.076       .  S
Mn92        O623   1.951   1_545  S
Mn92        O661   1.965   1_545  S
O93        Mn626   2.126   1_545  S
C94         C246   1.478       .  S
O95       Mn1203   2.106   1_455  S
O96       Mn1188   2.110   1_455  S
O96         C101   1.253       .  A
Mn97        O100   2.107       .  S
O98        Mn645   2.093       .  S
O99        Mn654   1.965       .  S
O99         C101   1.219       .  S
C101        C201   1.482       .  S
C102        C103   1.403       .  A
C102        C107   1.414       .  A
C103        C104   1.392       .  A
C103        H112   1.082       .  S
C104        C105   1.413       .  A
C104        S108   1.806       .  S
C105        C106   1.408       .  A
C106        C107   1.403       .  A
C106       H1237   1.084       .  S
C107       S1233   1.803       .  S
S108        H111   1.407       .  S
S109       C1231   1.803       .  S
S109       H1234   1.400       .  S
H110       S1233   1.400       .  S
H113       C1230   1.084   1_455  S
C114        C115   1.408       .  A
C114        C119   1.414       .  A
C115        C116   1.401       .  A
C115        H124   1.083       .  S
C116        C117   1.412       .  A
C116        S120   1.809       .  S
C117        C118   1.403       .  A
C118        C119   1.400       .  A
C118        H125   1.084       .  S
C119        S121   1.793       .  S
S120        H123   1.407       .  S
S121        H122   1.402       .  S
C126        C131   1.415       .  A
C126       C1251   1.405       .  A
C127        C128   1.390       .  A
C127       C1250   1.405   1_455  A
C127        H136   1.084       .  S
C128       C1253   1.414   1_455  A
C128        S132   1.807       .  S
C129        C130   1.410       .  A
C129       C1252   1.414       .  A
C129       C1165   1.490       .  S
C130        C131   1.407       .  A
C130        H137   1.083       .  S
C131        S133   1.803       .  S
S132        H135   1.407       .  S
S133        H134   1.400   1_545  S
C138        C143   1.417       .  A
C138       C1263   1.406       .  A
C139        C140   1.402       .  A
C139       C1262   1.406   1_455  A
C139        H148   1.082       .  S
C140       C1265   1.415   1_455  A
C140        S144   1.803       .  S
C141        C142   1.403       .  A
C141       C1264   1.415       .  A
C141       C1161   1.485       .  S
C142        C143   1.395       .  A
C142        H149   1.084       .  S
C143        S145   1.804       .  S
S144        H147   1.407       .  S
S145        H146   1.408       .  S
C150        C151   1.406       .  A
C150        C155   1.417       .  A
C150       C1163   1.491       .  S
C151        C152   1.402       .  A
C151        H160   1.082       .  S
C152        C434   1.412   1_554  A
C152        S156   1.809   1_554  S
C153        C433   1.412       .  A
C153        C435   1.403       .  A
C154        C155   1.403       .  A
C154        C434   1.403   1_554  A
C154        H161   1.083   1_554  S
C155       S1281   1.808       .  S
S156        H440   1.407   1_556  S
S157       C1279   1.808       .  S
S157        H158   1.407       .  S
H159        S437   1.407       .  S
C162        C167   1.413       .  A
C162        C725   1.404       .  A
C163        C164   1.395       .  A
C163        C724   1.404       .  A
C163        H172   1.083   1_565  S
C164        C727   1.413       .  A
C164        S168   1.800   1_565  S
C165        C166   1.406       .  A
C165        C726   1.413       .  A
C166        C167   1.403       .  A
C166        H173   1.080       .  S
C167        S169   1.803       .  S
S168        H171   1.398       .  S
S169        H170   1.406       .  S
C174        C175   1.406       .  A
C174        C741   1.414       .  A
C175        C176   1.402       .  A
C175        H184   1.084       .  S
C176        C177   1.413       .  A
C176        S180   1.795       .  S
C177        C740   1.404       .  A
C178        C179   1.392       .  A
C178        C739   1.404   1_545  A
C178        H185   1.082       .  S
C179        C736   1.414   1_545  A
C179        S181   1.806       .  S
S180        H183   1.406       .  S
S181        H182   1.407       .  S
C186        C191   1.410       .  A
C186        C749   1.397       .  A
C187        C188   1.397       .  A
C187        C748   1.397   1_545  A
C187        H196   1.084       .  S
C188        C751   1.424   1_545  A
C188        S192   1.802       .  S
C189        C190   1.409       .  A
C189        C750   1.424       .  A
C190        C191   1.401       .  A
C190        H197   1.081       .  S
C191        S193   1.804       .  S
S192        H195   1.406       .  S
S193        H194   1.406       .  S
C198        C203   1.415       .  A
C198        C761   1.407       .  A
C199        C200   1.404       .  A
C199        C760   1.407       .  A
C199        H208   1.084   1_565  S
C200        C763   1.412       .  A
C200        S204   1.795   1_565  S
C201        C202   1.403       .  A
C201        C762   1.412       .  A
C202        C203   1.393       .  A
C202        H209   1.082       .  S
C203        S205   1.806       .  S
S204        H207   1.406   1_545  S
S205        H206   1.407       .  S
C210       C1054   1.404       .  A
C210        C496   1.414       .  A
C211        C212   1.399       .  A
C211       C1053   1.404   1_544  A
C211        H220   1.084       .  S
C212        C775   1.412   1_545  A
C212        S216   1.805       .  S
C213        C214   1.402       .  A
C213        C774   1.412       .  A
C214        C215   1.400       .  A
C214        H221   1.084       .  S
C215        C491   1.414   1_554  A
C215        S498   1.803   1_554  S
S216        H219   1.406       .  S
S217        C496   1.803       .  S
S217        H218   1.406       .  S
C222        C223   1.405       .  A
C222        C227   1.414       .  A
C223        C224   1.390       .  A
C223        H232   1.084       .  S
C224        C225   1.414       .  A
C224        S228   1.807       .  S
C225        C226   1.411       .  A
C226        C227   1.406       .  A
C226        H233   1.083       .  S
C227        S229   1.804       .  S
S228        H231   1.407       .  S
S229        H230   1.404       .  S
C234        C235   1.407       .  A
C234        C239   1.419       .  A
C235        C236   1.403       .  A
C235        H244   1.081       .  S
C236        C237   1.415       .  A
C236        S240   1.803       .  S
C237        C238   1.401       .  A
C238        C239   1.396       .  A
C238        H245   1.084       .  S
C239        S241   1.804       .  S
S240        H243   1.406       .  S
S241        H242   1.408       .  S
C246        C247   1.403       .  A
C246        C251   1.412       .  A
C247        C248   1.393       .  A
C247        H256   1.082       .  S
C248        C249   1.414       .  A
C248        S252   1.806       .  S
C249        C250   1.408       .  A
C250        C251   1.403       .  A
C250        H257   1.084       .  S
C251        S253   1.799       .  S
S252        H255   1.407       .  S
S253        H254   1.406       .  S
C258        C259   1.404       .  A
C258        C263   1.413       .  A
C259        C260   1.403       .  A
C259        H268   1.083       .  S
C260        C261   1.411       .  A
C260        S264   1.795       .  S
C261        C262   1.406       .  A
C262        C263   1.396       .  A
C262        H269   1.084       .  S
C263        S265   1.805       .  S
S264        H267   1.406       .  S
S265        H266   1.407       .  S
C270        C552   1.405       .  A
C270        C556   1.415       .  A
C271        C272   1.398       .  A
C271        C551   1.405   1_554  A
C271        H280   1.084       .  S
C272        C273   1.412       .  A
C272        S276   1.804       .  S
C273        C274   1.403       .  A
C274        C275   1.399       .  A
C274        H281   1.084       .  S
C275        C551   1.415   1_554  A
C275        S558   1.804       .  S
S276        H279   1.406       .  S
S277        C556   1.804       .  S
S277        H278   1.407       .  S
C282        C283   1.403       .  A
C282        C287   1.402       .  A
C282        C539   1.483       .  S
C283        C284   1.403       .  A
C283        H288   1.084       .  S
C284        C285   1.405       .  A
C284        C554   1.478       .  S
C285        C286   1.403       .  A
C285        H289   1.084       .  S
C286        C287   1.403       .  A
C286        C530   1.485       .  S
C287        H290   1.083       .  S
C291        C292   1.402       .  A
C291        C296   1.401       .  A
C291        C518   1.484       .  S
C292        C293   1.408       .  A
C292        H297   1.083       .  S
C293        C294   1.407       .  A
C293        C551   1.483       .  S
C294        C295   1.403       .  A
C294        H298   1.083       .  S
C295        C296   1.404       .  A
C295        C506   1.491       .  S
C296        H299   1.084       .  S
C300        C301   1.400       .  A
C300        C305   1.400       .  A
C300        C467   1.475       .  S
C301        C302   1.403       .  A
C301        H306   1.084       .  S
C302        C303   1.406       .  A
C302        C494   1.476       .  S
C303        C304   1.405       .  A
C303        H307   1.083       .  S
C304        C305   1.405       .  A
C304        C479   1.489       .  S
C305        H308   1.084       .  S
C309        C310   1.401       .  A
C309        C314   1.405       .  A
C309        C443   1.484       .  S
C310        C311   1.401       .  A
C310        H315   1.084       .  S
C311        C312   1.402       .  A
C311        C455   1.485       .  S
C312        C313   1.405       .  A
C312        H316   1.083       .  S
C313        C314   1.408       .  A
C313        C491   1.480       .  S
C314        H317   1.083       .  S
C318        C319   1.403       .  A
C318        C323   1.400       .  A
C318       C1546   1.485       .  S
C319        C320   1.409       .  A
C319        H324   1.082       .  S
C320        C321   1.410       .  A
C320       C1555   1.491       .  S
C321        C322   1.404       .  A
C321        H325   1.083       .  S
C322        C323   1.402       .  A
C322       C1534   1.490       .  S
C323        H326   1.084       .  S
C327        C328   1.404       .  A
C327        C332   1.400       .  A
C327        C398   1.486       .  S
C328        C329   1.406       .  A
C328        H333   1.083       .  S
C329        C330   1.405       .  A
C329        C434   1.484       .  S
C330        C331   1.403       .  A
C330        H334   1.083       .  S
C331        C332   1.404       .  A
C331        C386   1.487       .  S
C332        H335   1.083       .  S
O336       Mn362   2.071       .  S
O336       C1487   1.268   1_455  A
C337        C542   1.485       .  S
C337        O370   1.268       .  A
C337        O367   1.277       .  A
O338       Mn345   2.172       .  S
O338       Mn356   2.121       .  S
O338       Mn360   2.163       .  S
O338      Mn1486   2.121       .  S
O339       Mn373   2.107       .  S
O339        C349   1.273       .  A
O340       Mn356   2.129       .  S
O340        C363   1.278       .  A
O341       Mn360   2.120       .  S
O341        C368   1.253       .  A
O342       Mn935   1.951       .  S
O342       Mn362   1.965       .  S
O342        C358   1.218       .  S
C343        C383   1.478       .  S
C343        O346   1.252       .  A
C343        O369   1.219       .  S
O344       Mn926   2.112       .  S
O344       Mn345   2.173       .  S
O344       Mn378   2.121       .  S
O344       Mn360   2.171       .  S
Mn345       O936   2.126       .  S
Mn345       O350   2.104       .  S
Mn345      O1501   2.110       .  S
Mn345      O2037   2.168       .  S
O346       Mn922   2.103   1_545  S
O347       Mn354   2.078       .  S
O347        C349   1.268       .  A
C348        C407   1.480       .  S
C348        O374   1.254       .  A
C348        O361   1.213       .  S
C349        C515   1.488       .  S
O350        C375   1.252       .  A
O351      Mn2031   2.168   1_445  S
O351       Mn354   2.115       .  S
O351       Mn373   2.123       .  S
O351      Mn2046   2.176   1_445  S
O352       Mn356   1.972       .  S
O352       Mn378   1.960       .  S
O352        C375   1.219       .  S
C353        C446   1.482       .  S
C353        O379   1.271       .  A
C353        O355   1.271       .  A
Mn354       O367   2.124       .  S
Mn354      O1493   1.970   1_455  S
Mn354      O1485   1.946   1_455  S
O355       Mn378   2.093       .  S
Mn356       O372   2.080       .  S
Mn356       O366   1.951       .  S
O357       Mn362   2.101       .  S
O357       C1483   1.272   1_455  A
C358        C458   1.481       .  S
C358        O376   1.252       .  A
C359        C419   1.483       .  S
C359       O1481   1.272       .  A
C359        O372   1.269       .  A
Mn360       O908   2.103       .  S
Mn360      O1500   2.106       .  S
Mn360      O2037   2.176       .  S
O361      Mn1478   1.946       .  S
O361       Mn364   1.945       .  S
Mn362      O1462   2.121   1_455  S
Mn362       O380   1.953       .  S
C363        C395   1.487       .  S
C363       O1460   1.268       .  A
Mn364       O933   2.076       .  S
Mn364       O941   2.093       .  S
Mn364       O906   2.112   1_545  S
Mn364       O369   1.958       .  S
C365        C470   1.493       .  S
C365        O371   1.266       .  A
C365        O381   1.274       .  A
O366       Mn378   1.954       .  S
O366        C368   1.213       .  S
C368        C503   1.480       .  S
O369      Mn1478   1.970       .  S
O370       Mn373   2.072       .  S
O371       Mn926   2.076       .  S
Mn373       O904   1.951   1_545  S
Mn373       O942   1.965   1_545  S
O374       Mn907   2.126   1_545  S
C375        C527   1.478       .  S
O376      Mn1484   2.106   1_455  S
O377      Mn1469   2.110   1_455  S
O377        C382   1.253       .  A
Mn378       O381   2.107       .  S
O379       Mn926   2.093       .  S
O380       Mn935   1.965       .  S
O380        C382   1.219       .  S
C382        C482   1.482       .  S
C383        C384   1.403       .  A
C383        C388   1.414       .  A
C384        C385   1.392       .  A
C384        H393   1.082       .  S
C385        C386   1.413       .  A
C385        S389   1.806       .  S
C386        C387   1.408       .  A
C387        C388   1.403       .  A
C387       H1518   1.084       .  S
C388       S1514   1.803       .  S
S389        H392   1.407       .  S
S390       C1512   1.803       .  S
S390       H1515   1.400       .  S
H391       S1514   1.400       .  S
H394       C1511   1.084   1_455  S
C395        C396   1.408       .  A
C395        C400   1.414       .  A
C396        C397   1.401       .  A
C396        H405   1.083       .  S
C397        C398   1.412       .  A
C397        S401   1.809       .  S
C398        C399   1.403       .  A
C399        C400   1.400       .  A
C399        H406   1.084       .  S
C400        S402   1.793       .  S
S401        H404   1.407       .  S
S402        H403   1.402       .  S
C407       C1532   1.405       .  A
C407        C412   1.415       .  A
C408       C1531   1.405   1_455  A
C408        C409   1.390       .  A
C408        H417   1.084       .  S
C409       C1534   1.414   1_455  A
C409        S413   1.807       .  S
C410       C1533   1.414       .  A
C410        C411   1.410       .  A
C410       C1446   1.490       .  S
C411        C412   1.407       .  A
C411        H418   1.083       .  S
C412        S414   1.803       .  S
S413        H416   1.407       .  S
S414        H415   1.400   1_545  S
C419       C1544   1.406       .  A
C419        C424   1.417       .  A
C420       C1543   1.406   1_455  A
C420        C421   1.402       .  A
C420        H429   1.082       .  S
C421       C1546   1.415   1_455  A
C421        S425   1.803       .  S
C422       C1545   1.415       .  A
C422        C423   1.403       .  A
C422       C1442   1.485       .  S
C423        C424   1.395       .  A
C423        H430   1.084       .  S
C424        S426   1.804       .  S
S425        H428   1.407       .  S
S426        H427   1.408       .  S
C431        C432   1.406       .  A
C431        C436   1.417       .  A
C431       C1444   1.491       .  S
C432        C433   1.402       .  A
C432        H441   1.082       .  S
C433        S437   1.809       .  S
C435        C436   1.403       .  A
C435        H442   1.083       .  S
C436       S1562   1.808       .  S
S438       C1560   1.808       .  S
S438        H439   1.407       .  S
C443       C1006   1.404       .  A
C443        C448   1.413       .  A
C444       C1005   1.404       .  A
C444        C445   1.395       .  A
C444        H453   1.083   1_565  S
C445       C1008   1.413       .  A
C445        S449   1.800   1_565  S
C446       C1007   1.413       .  A
C446        C447   1.406       .  A
C447        C448   1.403       .  A
C447        H454   1.080       .  S
C448        S450   1.803       .  S
S449        H452   1.398       .  S
S450        H451   1.406       .  S
C455        C456   1.406       .  A
C455       C1022   1.414       .  A
C456        C457   1.402       .  A
C456        H465   1.084       .  S
C457        C458   1.413       .  A
C457        S461   1.795       .  S
C458       C1021   1.404       .  A
C459       C1020   1.404   1_545  A
C459        C460   1.392       .  A
C459        H466   1.082       .  S
C460       C1017   1.414   1_545  A
C460        S462   1.806       .  S
S461        H464   1.406       .  S
S462        H463   1.407       .  S
C467       C1030   1.397       .  A
C467        C472   1.410       .  A
C468       C1029   1.397   1_545  A
C468        C469   1.397       .  A
C468        H477   1.084       .  S
C469       C1032   1.424   1_545  A
C469        S473   1.802       .  S
C470       C1031   1.424       .  A
C470        C471   1.409       .  A
C471        C472   1.401       .  A
C471        H478   1.081       .  S
C472        S474   1.804       .  S
S473        H476   1.406       .  S
S474        H475   1.406       .  S
C479       C1042   1.407       .  A
C479        C484   1.415       .  A
C480       C1041   1.407       .  A
C480        C481   1.404       .  A
C480        H489   1.084   1_565  S
C481       C1044   1.412       .  A
C481        S485   1.795   1_565  S
C482       C1043   1.412       .  A
C482        C483   1.403       .  A
C483        C484   1.393       .  A
C483        H490   1.082       .  S
C484        S486   1.806       .  S
S485        H488   1.406   1_545  S
S486        H487   1.407       .  S
C491        C773   1.404   1_556  A
C492        C772   1.404   1_545  A
C492        C493   1.399       .  A
C492        H501   1.084       .  S
C493       C1056   1.412   1_545  A
C493        S497   1.805       .  S
C494       C1055   1.412       .  A
C494        C495   1.402       .  A
C495        C496   1.400       .  A
C495        H502   1.084       .  S
S497        H500   1.406       .  S
S498        H499   1.406       .  S
C503        C504   1.405       .  A
C503        C508   1.414       .  A
C504        C505   1.390       .  A
C504        H513   1.084       .  S
C505        C506   1.414       .  A
C505        S509   1.807       .  S
C506        C507   1.411       .  A
C507        C508   1.406       .  A
C507        H514   1.083       .  S
C508        S510   1.804       .  S
S509        H512   1.407       .  S
S510        H511   1.404       .  S
C515        C516   1.407       .  A
C515        C520   1.419       .  A
C516        C517   1.403       .  A
C516        H525   1.081       .  S
C517        C518   1.415       .  A
C517        S521   1.803       .  S
C518        C519   1.401       .  A
C519        C520   1.396       .  A
C519        H526   1.084       .  S
C520        S522   1.804       .  S
S521        H524   1.406       .  S
S522        H523   1.408       .  S
C527        C528   1.403       .  A
C527        C532   1.412       .  A
C528        C529   1.393       .  A
C528        H537   1.082       .  S
C529        C530   1.414       .  A
C529        S533   1.806       .  S
C530        C531   1.408       .  A
C531        C532   1.403       .  A
C531        H538   1.084       .  S
C532        S534   1.799       .  S
S533        H536   1.407       .  S
S534        H535   1.406       .  S
C539        C540   1.404       .  A
C539        C544   1.413       .  A
C540        C541   1.403       .  A
C540        H549   1.083       .  S
C541        C542   1.411       .  A
C541        S545   1.795       .  S
C542        C543   1.406       .  A
C543        C544   1.396       .  A
C543        H550   1.084       .  S
C544        S546   1.805       .  S
S545        H548   1.406       .  S
S546        H547   1.407       .  S
C552        C553   1.398       .  A
C552        H561   1.084       .  S
C553        C554   1.412       .  A
C553        S557   1.804       .  S
C554        C555   1.403       .  A
C555        C556   1.399       .  A
C555        H562   1.084       .  S
S557        H560   1.406       .  S
S558        H559   1.407   1_554  S
C563        C564   1.403       .  A
C563        C568   1.402       .  A
C563        C820   1.483       .  S
C564        C565   1.403       .  A
C564        H569   1.084       .  S
C565        C566   1.405       .  A
C565        C835   1.478       .  S
C566        C567   1.403       .  A
C566        H570   1.084       .  S
C567        C568   1.403       .  A
C567        C811   1.485       .  S
C568        H571   1.083       .  S
C572        C573   1.402       .  A
C572        C577   1.401       .  A
C572        C799   1.484       .  S
C573        C574   1.408       .  A
C573        H578   1.083       .  S
C574        C575   1.407       .  A
C574        C832   1.483       .  S
C575        C576   1.403       .  A
C575        H579   1.083       .  S
C576        C577   1.404       .  A
C576        C787   1.491       .  S
C577        H580   1.084       .  S
C581        C582   1.400       .  A
C581        C586   1.400       .  A
C581        C748   1.475       .  S
C582        C583   1.403       .  A
C582        H587   1.084       .  S
C583        C584   1.406       .  A
C583        C775   1.476       .  S
C584        C585   1.405       .  A
C584        H588   1.083       .  S
C585        C586   1.405       .  A
C585        C760   1.489       .  S
C586        H589   1.084       .  S
C590        C591   1.401       .  A
C590        C595   1.405       .  A
C590        C724   1.484       .  S
C591        C592   1.401       .  A
C591        H596   1.084       .  S
C592        C593   1.402       .  A
C592        C736   1.485       .  S
C593        C594   1.405       .  A
C593        H597   1.083       .  S
C594        C595   1.408       .  A
C594        C772   1.480       .  S
C595        H598   1.083       .  S
C599        C600   1.403       .  A
C599        C604   1.400       .  A
C599       C1827   1.485       .  S
C600        C601   1.409       .  A
C600        H605   1.082       .  S
C601        C602   1.410       .  A
C601       C1836   1.491       .  S
C602        C603   1.404       .  A
C602        H606   1.083       .  S
C603        C604   1.402       .  A
C603       C1815   1.490       .  S
C604        H607   1.084       .  S
C608        C609   1.404       .  A
C608        C613   1.400       .  A
C608        C679   1.486       .  S
C609        C610   1.406       .  A
C609        H614   1.083       .  S
C610        C611   1.405       .  A
C610        C715   1.484       .  S
C611        C612   1.403       .  A
C611        H615   1.083       .  S
C612        C613   1.404       .  A
C612        C667   1.487       .  S
C613        H616   1.083       .  S
O617       Mn643   2.071       .  S
O617       C1768   1.268   1_455  A
C618        C823   1.485       .  S
C618        O651   1.268       .  A
C618        O648   1.277       .  A
O619       Mn626   2.172       .  S
O619       Mn637   2.121       .  S
O619       Mn641   2.163       .  S
O619      Mn1767   2.121       .  S
O620       Mn654   2.107       .  S
O620        C630   1.273       .  A
O621       Mn637   2.129       .  S
O621        C644   1.278       .  A
O622       Mn641   2.120       .  S
O622        C649   1.253       .  A
O623       Mn643   1.965       .  S
O623        C639   1.218       .  S
C624        C664   1.478       .  S
C624        O627   1.252       .  A
C624        O650   1.219       .  S
O625       Mn626   2.173       .  S
O625       Mn659   2.121       .  S
O625       Mn641   2.171       .  S
Mn626       O631   2.104       .  S
Mn626      O1782   2.110       .  S
Mn626      O1194   2.168   1_565  S
O628       Mn635   2.078       .  S
O628        C630   1.268       .  A
C629        C688   1.480       .  S
C629        O655   1.254       .  A
C629        O642   1.213       .  S
C630        C796   1.488       .  S
O631        C656   1.252       .  A
O632      Mn1188   2.168   1_455  S
O632       Mn635   2.115       .  S
O632       Mn654   2.123       .  S
O632      Mn1203   2.176   1_455  S
O633       Mn637   1.972       .  S
O633       Mn659   1.960       .  S
O633        C656   1.219       .  S
C634        C727   1.482       .  S
C634        O660   1.271   1_565  A
C634        O636   1.271       .  A
Mn635       O648   2.124       .  S
Mn635      O1774   1.970   1_455  S
Mn635      O1766   1.946   1_455  S
O636       Mn659   2.093       .  S
Mn637       O653   2.080       .  S
Mn637       O647   1.951       .  S
O638       Mn643   2.101       .  S
O638       C1764   1.272   1_455  A
C639        C739   1.481       .  S
C639        O657   1.252       .  A
C640        C700   1.483       .  S
C640       O1762   1.272       .  A
C640        O653   1.269       .  A
Mn641      O1781   2.106       .  S
Mn641      O1194   2.176   1_565  S
O642      Mn1759   1.946       .  S
O642       Mn645   1.945       .  S
Mn643      O1743   2.121   1_455  S
Mn643       O661   1.953       .  S
C644        C676   1.487       .  S
C644       O1741   1.268       .  A
Mn645       O650   1.958       .  S
C646        C751   1.493       .  S
C646        O652   1.266   1_565  A
C646        O662   1.274       .  A
O647       Mn659   1.954       .  S
O647        C649   1.213       .  S
C649        C784   1.480       .  S
O650      Mn1759   1.970       .  S
O651       Mn654   2.072       .  S
C656        C808   1.478       .  S
O657      Mn1765   2.106   1_455  S
O658      Mn1750   2.110   1_455  S
O658        C663   1.253       .  A
Mn659       O662   2.107       .  S
O661        C663   1.219       .  S
C663        C763   1.482       .  S
C664        C665   1.403       .  A
C664        C669   1.414       .  A
C665        C666   1.392       .  A
C665        H674   1.082       .  S
C666        C667   1.413       .  A
C666        S670   1.806       .  S
C667        C668   1.408       .  A
C668        C669   1.403       .  A
C668       H1799   1.084       .  S
C669       S1795   1.803       .  S
S670        H673   1.407       .  S
S671       C1793   1.803       .  S
S671       H1796   1.400       .  S
H672       S1795   1.400       .  S
H675       C1792   1.084   1_455  S
C676        C677   1.408       .  A
C676        C681   1.414       .  A
C677        C678   1.401       .  A
C677        H686   1.083       .  S
C678        C679   1.412       .  A
C678        S682   1.809       .  S
C679        C680   1.403       .  A
C680        C681   1.400       .  A
C680        H687   1.084       .  S
C681        S683   1.793       .  S
S682        H685   1.407       .  S
S683        H684   1.402       .  S
C688       C1813   1.405       .  A
C688        C693   1.415       .  A
C689       C1812   1.405   1_455  A
C689        C690   1.390       .  A
C689        H698   1.084       .  S
C690       C1815   1.414   1_455  A
C690        S694   1.807       .  S
C691       C1814   1.414       .  A
C691        C692   1.410       .  A
C691       C1727   1.490       .  S
C692        C693   1.407       .  A
C692        H699   1.083       .  S
C693        S695   1.803       .  S
S694        H697   1.407       .  S
S695        H696   1.400       .  S
C700       C1825   1.406       .  A
C700        C705   1.417       .  A
C701       C1824   1.406   1_455  A
C701        C702   1.402       .  A
C701        H710   1.082       .  S
C702       C1827   1.415   1_455  A
C702        S706   1.803       .  S
C703       C1826   1.415       .  A
C703        C704   1.403       .  A
C703       C1723   1.485       .  S
C704        C705   1.395       .  A
C704        H711   1.084       .  S
C705        S707   1.804       .  S
S706        H709   1.407       .  S
S707        H708   1.408       .  S
C712        C713   1.406       .  A
C712        C717   1.417       .  A
C712       C1725   1.491       .  S
C713        C714   1.402       .  A
C713        H722   1.082       .  S
C714        C996   1.412   1_554  A
C714        S718   1.809   1_554  S
C715        C995   1.412       .  A
C715        C997   1.403       .  A
C716        C996   1.403   1_554  A
C716        C717   1.403       .  A
C716        H723   1.083   1_554  S
C717       S1843   1.808       .  S
S718       H1002   1.407   1_556  S
S719       C1841   1.808       .  S
S719        H720   1.407       .  S
H721        S999   1.407       .  S
C724        C729   1.413       .  A
C725        C726   1.395       .  A
C725        H734   1.083       .  S
C726        S730   1.800       .  S
C727        C728   1.406       .  A
C728        C729   1.403       .  A
C728        H735   1.080       .  S
C729        S731   1.803       .  S
S730        H733   1.398       .  S
S731        H732   1.406       .  S
C736        C737   1.406       .  A
C737        C738   1.402       .  A
C737        H746   1.084       .  S
C738        C739   1.413       .  A
C738        S742   1.795       .  S
C740        C741   1.392       .  A
C740        H747   1.082       .  S
C741        S743   1.806       .  S
S742        H745   1.406       .  S
S743        H744   1.407       .  S
C748        C753   1.410       .  A
C749        C750   1.397       .  A
C749        H758   1.084       .  S
C750        S754   1.802       .  S
C751        C752   1.409       .  A
C752        C753   1.401       .  A
C752        H759   1.081       .  S
C753        S755   1.804       .  S
S754        H757   1.406       .  S
S755        H756   1.406       .  S
C760        C765   1.415       .  A
C761        C762   1.404       .  A
C761        H770   1.084       .  S
C762        S766   1.795       .  S
C763        C764   1.403       .  A
C764        C765   1.393       .  A
C764        H771   1.082       .  S
C765        S767   1.806       .  S
S766        H769   1.406       .  S
S767        H768   1.407       .  S
C772       C1058   1.414       .  A
C773        C774   1.399       .  A
C773        H782   1.084       .  S
C774        S778   1.805       .  S
C775        C776   1.402       .  A
C776        C777   1.400       .  A
C776        H783   1.084       .  S
C777       C1053   1.414   1_554  A
C777       S1060   1.803   1_554  S
S778        H781   1.406       .  S
S779       C1058   1.803       .  S
S779        H780   1.406       .  S
C784        C785   1.405       .  A
C784        C789   1.414       .  A
C785        C786   1.390       .  A
C785        H794   1.084       .  S
C786        C787   1.414       .  A
C786        S790   1.807       .  S
C787        C788   1.411       .  A
C788        C789   1.406       .  A
C788        H795   1.083       .  S
C789        S791   1.804       .  S
S790        H793   1.407       .  S
S791        H792   1.404       .  S
C796        C797   1.407       .  A
C796        C801   1.419       .  A
C797        C798   1.403       .  A
C797        H806   1.081       .  S
C798        C799   1.415       .  A
C798        S802   1.803       .  S
C799        C800   1.401       .  A
C800        C801   1.396       .  A
C800        H807   1.084       .  S
C801        S803   1.804       .  S
S802        H805   1.406       .  S
S803        H804   1.408       .  S
C808        C809   1.403       .  A
C808        C813   1.412       .  A
C809        C810   1.393       .  A
C809        H818   1.082       .  S
C810        C811   1.414       .  A
C810        S814   1.806       .  S
C811        C812   1.408       .  A
C812        C813   1.403       .  A
C812        H819   1.084       .  S
C813        S815   1.799       .  S
S814        H817   1.407       .  S
S815        H816   1.406       .  S
C820        C821   1.404       .  A
C820        C825   1.413       .  A
C821        C822   1.403       .  A
C821        H830   1.083       .  S
C822        C823   1.411       .  A
C822        S826   1.795       .  S
C823        C824   1.406       .  A
C824        C825   1.396       .  A
C824        H831   1.084       .  S
C825        S827   1.805       .  S
S826        H829   1.406       .  S
S827        H828   1.407       .  S
C832       C1114   1.405       .  A
C832       C1118   1.415       .  A
C833       C1113   1.405   1_554  A
C833        C834   1.398       .  A
C833        H842   1.084       .  S
C834        C835   1.412       .  A
C834        S838   1.804       .  S
C835        C836   1.403       .  A
C836        C837   1.399       .  A
C836        H843   1.084       .  S
C837       C1113   1.415   1_554  A
C837       S1120   1.804       .  S
S838        H841   1.406       .  S
S839       C1118   1.804       .  S
S839        H840   1.407       .  S
C844        C845   1.403       .  A
C844        C849   1.402       .  A
C844       C1101   1.483       .  S
C845        C846   1.403       .  A
C845        H850   1.084       .  S
C846        C847   1.405       .  A
C846       C1116   1.478       .  S
C847        C848   1.403       .  A
C847        H851   1.084       .  S
C848        C849   1.403       .  A
C848       C1092   1.485       .  S
C849        H852   1.083       .  S
C853        C854   1.402       .  A
C853        C858   1.401       .  A
C853       C1080   1.484       .  S
C854        C855   1.408       .  A
C854        H859   1.083       .  S
C855        C856   1.407       .  A
C855       C1113   1.483       .  S
C856        C857   1.403       .  A
C856        H860   1.083       .  S
C857        C858   1.404       .  A
C857       C1068   1.491       .  S
C858        H861   1.084       .  S
C862        C863   1.400       .  A
C862        C867   1.400       .  A
C862       C1029   1.475       .  S
C863        C864   1.403       .  A
C863        H868   1.084       .  S
C864        C865   1.406       .  A
C864       C1056   1.476       .  S
C865        C866   1.405       .  A
C865        H869   1.083       .  S
C866        C867   1.405       .  A
C866       C1041   1.489       .  S
C867        H870   1.084       .  S
C871        C872   1.401       .  A
C871        C876   1.405       .  A
C871       C1005   1.484       .  S
C872        C873   1.401       .  A
C872        H877   1.084       .  S
C873        C874   1.402       .  A
C873       C1017   1.485       .  S
C874        C875   1.405       .  A
C874        H878   1.083       .  S
C875        C876   1.408       .  A
C875       C1053   1.480       .  S
C876        H879   1.083       .  S
C880        C881   1.403       .  A
C880        C885   1.400       .  A
C880       C2108   1.485       .  S
C881        C882   1.409       .  A
C881        H886   1.082       .  S
C882        C883   1.410       .  A
C882       C2117   1.491       .  S
C883        C884   1.404       .  A
C883        H887   1.083       .  S
C884        C885   1.402       .  A
C884       C2096   1.490       .  S
C885        H888   1.084       .  S
C889        C890   1.404       .  A
C889        C894   1.400       .  A
C889        C960   1.486       .  S
C890        C891   1.406       .  A
C890        H895   1.083       .  S
C891        C892   1.405       .  A
C891        C996   1.484       .  S
C892        C893   1.403       .  A
C892        H896   1.083       .  S
C893        C894   1.404       .  A
C893        C948   1.487       .  S
C894        H897   1.083       .  S
O898       Mn924   2.071       .  S
O898       C2049   1.268   1_455  A
C899       C1104   1.485       .  S
C899        O932   1.268       .  A
C899        O929   1.277       .  A
O900       Mn907   2.172       .  S
O900       Mn918   2.121       .  S
O900       Mn922   2.163       .  S
O900      Mn2048   2.121       .  S
O901       Mn935   2.107       .  S
O901        C911   1.273       .  A
O902       Mn918   2.129       .  S
O902        C925   1.278       .  A
O903       Mn922   2.120       .  S
O903        C930   1.253       .  A
O904       Mn924   1.965       .  S
O904        C920   1.218       .  S
C905        C945   1.478       .  S
C905        O908   1.252       .  A
C905        O931   1.219       .  S
O906       Mn907   2.173       .  S
O906       Mn940   2.121       .  S
O906       Mn922   2.171       .  S
Mn907       O912   2.104       .  S
Mn907      O2063   2.110       .  S
Mn907      O1475   2.168   1_565  S
O909       Mn916   2.078       .  S
O909        C911   1.268       .  A
C910        C969   1.480       .  S
C910        O936   1.254       .  A
C910        O923   1.213       .  S
C911       C1077   1.488       .  S
O912        C937   1.252       .  A
O913      Mn1469   2.168   1_455  S
O913       Mn916   2.115       .  S
O913       Mn935   2.123       .  S
O913      Mn1484   2.176   1_455  S
O914       Mn918   1.972       .  S
O914       Mn940   1.960       .  S
O914        C937   1.219       .  S
C915       C1008   1.482       .  S
C915        O941   1.271   1_565  A
C915        O917   1.271       .  A
Mn916       O929   2.124       .  S
Mn916      O2055   1.970   1_455  S
Mn916      O2047   1.946   1_455  S
O917       Mn940   2.093       .  S
Mn918       O934   2.080       .  S
Mn918       O928   1.951       .  S
O919       Mn924   2.101       .  S
O919       C2045   1.272   1_455  A
C920       C1020   1.481       .  S
C920        O938   1.252       .  A
C921        C981   1.483       .  S
C921       O2043   1.272       .  A
C921        O934   1.269       .  A
Mn922      O2062   2.106       .  S
Mn922      O1475   2.176   1_565  S
O923      Mn2040   1.946       .  S
O923       Mn926   1.945       .  S
Mn924      O2024   2.121   1_455  S
Mn924       O942   1.953       .  S
C925        C957   1.487       .  S
C925       O2022   1.268       .  A
Mn926       O931   1.958       .  S
C927       C1032   1.493       .  S
C927        O933   1.266   1_565  A
C927        O943   1.274       .  A
O928       Mn940   1.954       .  S
O928        C930   1.213       .  S
C930       C1065   1.480       .  S
O931      Mn2040   1.970       .  S
O932       Mn935   2.072       .  S
C937       C1089   1.478       .  S
O938      Mn2046   2.106   1_455  S
O939      Mn2031   2.110   1_455  S
O939        C944   1.253       .  A
Mn940       O943   2.107       .  S
O942        C944   1.219       .  S
C944       C1044   1.482       .  S
C945        C946   1.403       .  A
C945        C950   1.414       .  A
C946        C947   1.392       .  A
C946        H955   1.082       .  S
C947        C948   1.413       .  A
C947        S951   1.806       .  S
C948        C949   1.408       .  A
C949        C950   1.403       .  A
C949       H2080   1.084       .  S
C950       S2076   1.803       .  S
S951        H954   1.407       .  S
S952       C2074   1.803       .  S
S952       H2077   1.400       .  S
H953       S2076   1.400       .  S
H956       C2073   1.084   1_455  S
C957        C958   1.408       .  A
C957        C962   1.414       .  A
C958        C959   1.401       .  A
C958        H967   1.083       .  S
C959        C960   1.412       .  A
C959        S963   1.809       .  S
C960        C961   1.403       .  A
C961        C962   1.400       .  A
C961        H968   1.084       .  S
C962        S964   1.793       .  S
S963        H966   1.407       .  S
S964        H965   1.402       .  S
C969       C2094   1.405       .  A
C969        C974   1.415       .  A
C970       C2093   1.405   1_455  A
C970        C971   1.390       .  A
C970        H979   1.084       .  S
C971       C2096   1.414   1_455  A
C971        S975   1.807       .  S
C972       C2095   1.414       .  A
C972        C973   1.410       .  A
C972       C2008   1.490       .  S
C973        C974   1.407       .  A
C973        H980   1.083       .  S
C974        S976   1.803       .  S
S975        H978   1.407       .  S
S976        H977   1.400       .  S
C981       C2106   1.406       .  A
C981        C986   1.417       .  A
C982       C2105   1.406   1_455  A
C982        C983   1.402       .  A
C982        H991   1.082       .  S
C983       C2108   1.415   1_455  A
C983        S987   1.803       .  S
C984       C2107   1.415       .  A
C984        C985   1.403       .  A
C984       C2004   1.485       .  S
C985        C986   1.395       .  A
C985        H992   1.084       .  S
C986        S988   1.804       .  S
S987        H990   1.407       .  S
S988        H989   1.408       .  S
C993        C994   1.406       .  A
C993        C998   1.417       .  A
C993       C2006   1.491       .  S
C994        C995   1.402       .  A
C994       H1003   1.082       .  S
C995        S999   1.809       .  S
C997        C998   1.403       .  A
C997       H1004   1.083       .  S
C998       S2124   1.808       .  S
S1000      C2122   1.808       .  S
S1000      H1001   1.407       .  S
C1005      C1010   1.413       .  A
C1006      C1007   1.395       .  A
C1006      H1015   1.083       .  S
C1007      S1011   1.800       .  S
C1008      C1009   1.406       .  A
C1009      C1010   1.403       .  A
C1009      H1016   1.080       .  S
C1010      S1012   1.803       .  S
S1011      H1014   1.398       .  S
S1012      H1013   1.406       .  S
C1017      C1018   1.406       .  A
C1018      C1019   1.402       .  A
C1018      H1027   1.084       .  S
C1019      C1020   1.413       .  A
C1019      S1023   1.795       .  S
C1021      C1022   1.392       .  A
C1021      H1028   1.082       .  S
C1022      S1024   1.806       .  S
S1023      H1026   1.406       .  S
S1024      H1025   1.407       .  S
C1029      C1034   1.410       .  A
C1030      C1031   1.397       .  A
C1030      H1039   1.084       .  S
C1031      S1035   1.802       .  S
C1032      C1033   1.409       .  A
C1033      C1034   1.401       .  A
C1033      H1040   1.081       .  S
C1034      S1036   1.804       .  S
S1035      H1038   1.406       .  S
S1036      H1037   1.406       .  S
C1041      C1046   1.415       .  A
C1042      C1043   1.404       .  A
C1042      H1051   1.084       .  S
C1043      S1047   1.795       .  S
C1044      C1045   1.403       .  A
C1045      C1046   1.393       .  A
C1045      H1052   1.082       .  S
C1046      S1048   1.806       .  S
S1047      H1050   1.406       .  S
S1048      H1049   1.407       .  S
C1054      C1055   1.399       .  A
C1054      H1063   1.084       .  S
C1055      S1059   1.805       .  S
C1056      C1057   1.402       .  A
C1057      C1058   1.400       .  A
C1057      H1064   1.084       .  S
S1059      H1062   1.406       .  S
S1060      H1061   1.406       .  S
C1065      C1066   1.405       .  A
C1065      C1070   1.414       .  A
C1066      C1067   1.390       .  A
C1066      H1075   1.084       .  S
C1067      C1068   1.414       .  A
C1067      S1071   1.807       .  S
C1068      C1069   1.411       .  A
C1069      C1070   1.406       .  A
C1069      H1076   1.083       .  S
C1070      S1072   1.804       .  S
S1071      H1074   1.407       .  S
S1072      H1073   1.404       .  S
C1077      C1078   1.407       .  A
C1077      C1082   1.419       .  A
C1078      C1079   1.403       .  A
C1078      H1087   1.081       .  S
C1079      C1080   1.415       .  A
C1079      S1083   1.803       .  S
C1080      C1081   1.401       .  A
C1081      C1082   1.396       .  A
C1081      H1088   1.084       .  S
C1082      S1084   1.804       .  S
S1083      H1086   1.406       .  S
S1084      H1085   1.408       .  S
C1089      C1090   1.403       .  A
C1089      C1094   1.412       .  A
C1090      C1091   1.393       .  A
C1090      H1099   1.082       .  S
C1091      C1092   1.414       .  A
C1091      S1095   1.806       .  S
C1092      C1093   1.408       .  A
C1093      C1094   1.403       .  A
C1093      H1100   1.084       .  S
C1094      S1096   1.799       .  S
S1095      H1098   1.407       .  S
S1096      H1097   1.406       .  S
C1101      C1102   1.404       .  A
C1101      C1106   1.413       .  A
C1102      C1103   1.403       .  A
C1102      H1111   1.083       .  S
C1103      C1104   1.411       .  A
C1103      S1107   1.795       .  S
C1104      C1105   1.406       .  A
C1105      C1106   1.396       .  A
C1105      H1112   1.084       .  S
C1106      S1108   1.805       .  S
S1107      H1110   1.406       .  S
S1108      H1109   1.407       .  S
C1114      C1115   1.398       .  A
C1114      H1123   1.084       .  S
C1115      C1116   1.412       .  A
C1115      S1119   1.804       .  S
C1116      C1117   1.403       .  A
C1117      C1118   1.399       .  A
C1117      H1124   1.084       .  S
S1119      H1122   1.406       .  S
S1120      H1121   1.407   1_554  S
C1125      C1126   1.403       .  A
C1125      C1130   1.402       .  A
C1125      C1382   1.483       .  S
C1126      C1127   1.403       .  A
C1126      H1131   1.084       .  S
C1127      C1128   1.405       .  A
C1127      C1397   1.478       .  S
C1128      C1129   1.403       .  A
C1128      H1132   1.084       .  S
C1129      C1130   1.403       .  A
C1129      C1373   1.485       .  S
C1130      H1133   1.083       .  S
C1134      C1135   1.402       .  A
C1134      C1139   1.401       .  A
C1134      C1361   1.484       .  S
C1135      C1136   1.408       .  A
C1135      H1140   1.083       .  S
C1136      C1137   1.407       .  A
C1136      C1394   1.483       .  S
C1137      C1138   1.403       .  A
C1137      H1141   1.083       .  S
C1138      C1139   1.404       .  A
C1138      C1349   1.491       .  S
C1139      H1142   1.084       .  S
C1143      C1144   1.400       .  A
C1143      C1148   1.400       .  A
C1143      C1310   1.475       .  S
C1144      C1145   1.403       .  A
C1144      H1149   1.084       .  S
C1145      C1146   1.406       .  A
C1145      C1337   1.476       .  S
C1146      C1147   1.405       .  A
C1146      H1150   1.083       .  S
C1147      C1148   1.405       .  A
C1147      C1322   1.489       .  S
C1148      H1151   1.084       .  S
C1152      C1153   1.401       .  A
C1152      C1157   1.405       .  A
C1152      C1286   1.484       .  S
C1153      C1154   1.401       .  A
C1153      H1158   1.084       .  S
C1154      C1155   1.402       .  A
C1154      C1298   1.485       .  S
C1155      C1156   1.405       .  A
C1155      H1159   1.083       .  S
C1156      C1157   1.408       .  A
C1156      C1334   1.480       .  S
C1157      H1160   1.083       .  S
C1161      C1162   1.403       .  A
C1161      C1166   1.400       .  A
C1162      C1163   1.409       .  A
C1162      H1167   1.082       .  S
C1163      C1164   1.410       .  A
C1164      C1165   1.404       .  A
C1164      H1168   1.083       .  S
C1165      C1166   1.402       .  A
C1166      H1169   1.084       .  S
C1170      C1171   1.404       .  A
C1170      C1175   1.400       .  A
C1170      C1241   1.486       .  S
C1171      C1172   1.406       .  A
C1171      H1176   1.083       .  S
C1172      C1173   1.405       .  A
C1172      C1277   1.484       .  S
C1173      C1174   1.403       .  A
C1173      H1177   1.083       .  S
C1174      C1175   1.404       .  A
C1174      C1229   1.487       .  S
C1175      H1178   1.083       .  S
O1179     Mn1205   2.071       .  S
C1180      C1385   1.485       .  S
C1180      O1213   1.268       .  A
C1180      O1210   1.277       .  A
O1181     Mn1188   2.172       .  S
O1181     Mn1199   2.121       .  S
O1181     Mn1203   2.163       .  S
O1182     Mn1216   2.107       .  S
O1182      C1192   1.273       .  A
O1183     Mn1199   2.129       .  S
O1183      C1206   1.278       .  A
O1184     Mn1203   2.120       .  S
O1184      C1211   1.253       .  A
O1185     Mn1778   1.951       .  S
O1185     Mn1205   1.965       .  S
O1185      C1201   1.218       .  S
C1186      C1226   1.478       .  S
C1186      O1189   1.252       .  A
C1186      O1212   1.219       .  S
O1187     Mn1769   2.112       .  S
O1187     Mn1188   2.173       .  S
O1187     Mn1221   2.121       .  S
O1187     Mn1203   2.171       .  S
Mn1188     O1779   2.126       .  S
Mn1188     O1193   2.104       .  S
O1189     Mn1765   2.103   1_545  S
O1190     Mn1197   2.078       .  S
O1190      C1192   1.268       .  A
C1191      C1250   1.480       .  S
C1191      O1217   1.254       .  A
C1191      O1204   1.213       .  S
C1192      C1358   1.488       .  S
O1193      C1218   1.252       .  A
O1194     Mn1197   2.115       .  S
O1194     Mn1216   2.123       .  S
O1195     Mn1199   1.972       .  S
O1195     Mn1221   1.960       .  S
O1195      C1218   1.219       .  S
C1196      C1289   1.482       .  S
C1196      O1222   1.271       .  A
C1196      O1198   1.271       .  A
Mn1197     O1210   2.124       .  S
O1198     Mn1221   2.093       .  S
Mn1199     O1215   2.080       .  S
Mn1199     O1209   1.951       .  S
O1200     Mn1205   2.101       .  S
C1201      C1301   1.481       .  S
C1201      O1219   1.252       .  A
C1202      C1262   1.483       .  S
C1202      O1215   1.269       .  A
Mn1203     O1751   2.103       .  S
O1204     Mn1207   1.945       .  S
Mn1205     O1223   1.953       .  S
C1206      C1238   1.487       .  S
Mn1207     O1776   2.076       .  S
Mn1207     O1784   2.093       .  S
Mn1207     O1749   2.112   1_545  S
Mn1207     O1212   1.958       .  S
C1208      C1313   1.493       .  S
C1208      O1214   1.266       .  A
C1208      O1224   1.274       .  A
O1209     Mn1221   1.954       .  S
O1209      C1211   1.213       .  S
C1211      C1346   1.480       .  S
O1213     Mn1216   2.072       .  S
O1214     Mn1769   2.076       .  S
Mn1216     O1747   1.951   1_545  S
Mn1216     O1785   1.965   1_545  S
O1217     Mn1750   2.126   1_545  S
C1218      C1370   1.478       .  S
O1220      C1225   1.253       .  A
Mn1221     O1224   2.107       .  S
O1222     Mn1769   2.093       .  S
O1223     Mn1778   1.965       .  S
O1223      C1225   1.219       .  S
C1225      C1325   1.482       .  S
C1226      C1227   1.403       .  A
C1226      C1231   1.414   1_655  A
C1227      C1228   1.392       .  A
C1227      H1236   1.082       .  S
C1228      C1229   1.413       .  A
C1228      S1232   1.806       .  S
C1229      C1230   1.408       .  A
C1230      C1231   1.403   1_655  A
S1232      H1235   1.407       .  S
C1238      C1239   1.408   1_655  A
C1238      C1243   1.414       .  A
C1239      C1240   1.401       .  A
C1239      H1248   1.083       .  S
C1240      C1241   1.412   1_455  A
C1240      S1244   1.809       .  S
C1241      C1242   1.403       .  A
C1242      C1243   1.400       .  A
C1242      H1249   1.084       .  S
C1243      S1245   1.793       .  S
S1244      H1247   1.407       .  S
S1245      H1246   1.402       .  S
C1250      C1255   1.415       .  A
C1251      C1252   1.390       .  A
C1251      H1260   1.084       .  S
C1252      S1256   1.807       .  S
C1253      C1254   1.410       .  A
C1254      C1255   1.407       .  A
C1254      H1261   1.083       .  S
C1255      S1257   1.803       .  S
S1256      H1259   1.407       .  S
S1257      H1258   1.400   1_545  S
C1262      C1267   1.417       .  A
C1263      C1264   1.402       .  A
C1263      H1272   1.082       .  S
C1264      S1268   1.803       .  S
C1265      C1266   1.403       .  A
C1266      C1267   1.395       .  A
C1266      H1273   1.084       .  S
C1267      S1269   1.804       .  S
S1268      H1271   1.407       .  S
S1269      H1270   1.408       .  S
C1274      C1275   1.406   1_655  A
C1274      C1279   1.417       .  A
C1275      C1276   1.402       .  A
C1275      H1284   1.082       .  S
C1276      C1558   1.412   1_454  A
C1276      S1280   1.809   1_554  S
C1277      C1557   1.412   1_655  A
C1277      C1559   1.403       .  A
C1278      C1558   1.403   1_554  A
C1278      C1279   1.403       .  A
C1278      H1285   1.083   1_554  S
S1280      H1564   1.407   1_556  S
S1281      H1282   1.407       .  S
H1283      S1561   1.407       .  S
C1286      C1849   1.404       .  A
C1286      C1291   1.413       .  A
C1287      C1848   1.404       .  A
C1287      C1288   1.395       .  A
C1287      H1296   1.083   1_565  S
C1288      C1851   1.413       .  A
C1288      S1292   1.800   1_565  S
C1289      C1850   1.413       .  A
C1289      C1290   1.406       .  A
C1290      C1291   1.403       .  A
C1290      H1297   1.080       .  S
C1291      S1293   1.803       .  S
S1292      H1295   1.398       .  S
S1293      H1294   1.406       .  S
C1298      C1299   1.406       .  A
C1298      C1865   1.414       .  A
C1299      C1300   1.402       .  A
C1299      H1308   1.084       .  S
C1300      C1301   1.413       .  A
C1300      S1304   1.795       .  S
C1301      C1864   1.404       .  A
C1302      C1863   1.404   1_545  A
C1302      C1303   1.392       .  A
C1302      H1309   1.082       .  S
C1303      C1860   1.414   1_545  A
C1303      S1305   1.806       .  S
S1304      H1307   1.406       .  S
S1305      H1306   1.407       .  S
C1310      C1873   1.397       .  A
C1310      C1315   1.410       .  A
C1311      C1872   1.397   1_545  A
C1311      C1312   1.397       .  A
C1311      H1320   1.084       .  S
C1312      C1875   1.424   1_545  A
C1312      S1316   1.802       .  S
C1313      C1874   1.424       .  A
C1313      C1314   1.409       .  A
C1314      C1315   1.401       .  A
C1314      H1321   1.081       .  S
C1315      S1317   1.804       .  S
S1316      H1319   1.406       .  S
S1317      H1318   1.406       .  S
C1322      C1885   1.407       .  A
C1322      C1327   1.415       .  A
C1323      C1884   1.407       .  A
C1323      C1324   1.404       .  A
C1323      H1332   1.084   1_565  S
C1324      C1887   1.412       .  A
C1324      S1328   1.795   1_565  S
C1325      C1886   1.412       .  A
C1325      C1326   1.403       .  A
C1326      C1327   1.393       .  A
C1326      H1333   1.082       .  S
C1327      S1329   1.806       .  S
S1328      H1331   1.406   1_545  S
S1329      H1330   1.407       .  S
C1334      C2178   1.404       .  A
C1334      C1620   1.414       .  A
C1335      C2177   1.404   1_544  A
C1335      C1336   1.399       .  A
C1335      H1344   1.084       .  S
C1336      C1899   1.412   1_545  A
C1336      S1340   1.805       .  S
C1337      C1898   1.412       .  A
C1337      C1338   1.402       .  A
C1338      C1339   1.400       .  A
C1338      H1345   1.084       .  S
C1339      C1615   1.414   1_554  A
C1339      S1622   1.803   1_554  S
S1340      H1343   1.406       .  S
S1341      C1620   1.803       .  S
S1341      H1342   1.406       .  S
C1346      C1347   1.405       .  A
C1346      C1351   1.414       .  A
C1347      C1348   1.390       .  A
C1347      H1356   1.084       .  S
C1348      C1349   1.414       .  A
C1348      S1352   1.807       .  S
C1349      C1350   1.411       .  A
C1350      C1351   1.406       .  A
C1350      H1357   1.083       .  S
C1351      S1353   1.804       .  S
S1352      H1355   1.407       .  S
S1353      H1354   1.404       .  S
C1358      C1359   1.407       .  A
C1358      C1363   1.419       .  A
C1359      C1360   1.403       .  A
C1359      H1368   1.081       .  S
C1360      C1361   1.415       .  A
C1360      S1364   1.803       .  S
C1361      C1362   1.401       .  A
C1362      C1363   1.396       .  A
C1362      H1369   1.084       .  S
C1363      S1365   1.804       .  S
S1364      H1367   1.406       .  S
S1365      H1366   1.408       .  S
C1370      C1371   1.403       .  A
C1370      C1375   1.412       .  A
C1371      C1372   1.393       .  A
C1371      H1380   1.082       .  S
C1372      C1373   1.414       .  A
C1372      S1376   1.806       .  S
C1373      C1374   1.408       .  A
C1374      C1375   1.403       .  A
C1374      H1381   1.084       .  S
C1375      S1377   1.799       .  S
S1376      H1379   1.407       .  S
S1377      H1378   1.406       .  S
C1382      C1383   1.404       .  A
C1382      C1387   1.413       .  A
C1383      C1384   1.403       .  A
C1383      H1392   1.083       .  S
C1384      C1385   1.411       .  A
C1384      S1388   1.795       .  S
C1385      C1386   1.406       .  A
C1386      C1387   1.396       .  A
C1386      H1393   1.084       .  S
C1387      S1389   1.805       .  S
S1388      H1391   1.406       .  S
S1389      H1390   1.407       .  S
C1394      C1676   1.405       .  A
C1394      C1680   1.415       .  A
C1395      C1675   1.405   1_554  A
C1395      C1396   1.398       .  A
C1395      H1404   1.084       .  S
C1396      C1397   1.412       .  A
C1396      S1400   1.804       .  S
C1397      C1398   1.403       .  A
C1398      C1399   1.399       .  A
C1398      H1405   1.084       .  S
C1399      C1675   1.415   1_554  A
C1399      S1682   1.804       .  S
S1400      H1403   1.406       .  S
S1401      C1680   1.804       .  S
S1401      H1402   1.407       .  S
C1406      C1407   1.403       .  A
C1406      C1411   1.402       .  A
C1406      C1663   1.483       .  S
C1407      C1408   1.403       .  A
C1407      H1412   1.084       .  S
C1408      C1409   1.405       .  A
C1408      C1678   1.478       .  S
C1409      C1410   1.403       .  A
C1409      H1413   1.084       .  S
C1410      C1411   1.403       .  A
C1410      C1654   1.485       .  S
C1411      H1414   1.083       .  S
C1415      C1416   1.402       .  A
C1415      C1420   1.401       .  A
C1415      C1642   1.484       .  S
C1416      C1417   1.408       .  A
C1416      H1421   1.083       .  S
C1417      C1418   1.407       .  A
C1417      C1675   1.483       .  S
C1418      C1419   1.403       .  A
C1418      H1422   1.083       .  S
C1419      C1420   1.404       .  A
C1419      C1630   1.491       .  S
C1420      H1423   1.084       .  S
C1424      C1425   1.400       .  A
C1424      C1429   1.400       .  A
C1424      C1591   1.475       .  S
C1425      C1426   1.403       .  A
C1425      H1430   1.084       .  S
C1426      C1427   1.406       .  A
C1426      C1618   1.476       .  S
C1427      C1428   1.405       .  A
C1427      H1431   1.083       .  S
C1428      C1429   1.405       .  A
C1428      C1603   1.489       .  S
C1429      H1432   1.084       .  S
C1433      C1434   1.401       .  A
C1433      C1438   1.405       .  A
C1433      C1567   1.484       .  S
C1434      C1435   1.401       .  A
C1434      H1439   1.084       .  S
C1435      C1436   1.402       .  A
C1435      C1579   1.485       .  S
C1436      C1437   1.405       .  A
C1436      H1440   1.083       .  S
C1437      C1438   1.408       .  A
C1437      C1615   1.480       .  S
C1438      H1441   1.083       .  S
C1442      C1443   1.403       .  A
C1442      C1447   1.400       .  A
C1443      C1444   1.409       .  A
C1443      H1448   1.082       .  S
C1444      C1445   1.410       .  A
C1445      C1446   1.404       .  A
C1445      H1449   1.083       .  S
C1446      C1447   1.402       .  A
C1447      H1450   1.084       .  S
C1451      C1452   1.404       .  A
C1451      C1456   1.400       .  A
C1451      C1522   1.486       .  S
C1452      C1453   1.406       .  A
C1452      H1457   1.083       .  S
C1453      C1454   1.405       .  A
C1453      C1558   1.484       .  S
C1454      C1455   1.403       .  A
C1454      H1458   1.083       .  S
C1455      C1456   1.404       .  A
C1455      C1510   1.487       .  S
C1456      H1459   1.083       .  S
O1460     Mn1486   2.071       .  S
C1461      C1666   1.485       .  S
C1461      O1494   1.268       .  A
C1461      O1491   1.277       .  A
O1462     Mn1469   2.172       .  S
O1462     Mn1480   2.121       .  S
O1462     Mn1484   2.163       .  S
O1463     Mn1497   2.107       .  S
O1463      C1473   1.273       .  A
O1464     Mn1480   2.129       .  S
O1464      C1487   1.278       .  A
O1465     Mn1484   2.120       .  S
O1465      C1492   1.253       .  A
O1466     Mn2059   1.951       .  S
O1466     Mn1486   1.965       .  S
O1466      C1482   1.218       .  S
C1467      C1507   1.478       .  S
C1467      O1470   1.252       .  A
C1467      O1493   1.219       .  S
O1468     Mn2050   2.112       .  S
O1468     Mn1469   2.173       .  S
O1468     Mn1502   2.121       .  S
O1468     Mn1484   2.171       .  S
Mn1469     O2060   2.126       .  S
Mn1469     O1474   2.104       .  S
O1470     Mn2046   2.103   1_545  S
O1471     Mn1478   2.078       .  S
O1471      C1473   1.268       .  A
C1472      C1531   1.480       .  S
C1472      O1498   1.254       .  A
C1472      O1485   1.213       .  S
C1473      C1639   1.488       .  S
O1474      C1499   1.252       .  A
O1475     Mn1478   2.115       .  S
O1475     Mn1497   2.123       .  S
O1476     Mn1480   1.972       .  S
O1476     Mn1502   1.960       .  S
O1476      C1499   1.219       .  S
C1477      C1570   1.482       .  S
C1477      O1503   1.271       .  A
C1477      O1479   1.271       .  A
Mn1478     O1491   2.124       .  S
O1479     Mn1502   2.093       .  S
Mn1480     O1496   2.080       .  S
Mn1480     O1490   1.951       .  S
O1481     Mn1486   2.101       .  S
C1482      C1582   1.481       .  S
C1482      O1500   1.252       .  A
C1483      C1543   1.483       .  S
C1483      O1496   1.269       .  A
Mn1484     O2032   2.103       .  S
O1485     Mn1488   1.945       .  S
Mn1486     O1504   1.953       .  S
C1487      C1519   1.487       .  S
Mn1488     O2057   2.076       .  S
Mn1488     O2065   2.093       .  S
Mn1488     O2030   2.112   1_545  S
Mn1488     O1493   1.958       .  S
C1489      C1594   1.493       .  S
C1489      O1495   1.266       .  A
C1489      O1505   1.274       .  A
O1490     Mn1502   1.954       .  S
O1490      C1492   1.213       .  S
C1492      C1627   1.480       .  S
O1494     Mn1497   2.072       .  S
O1495     Mn2050   2.076       .  S
Mn1497     O2028   1.951   1_545  S
Mn1497     O2066   1.965   1_545  S
O1498     Mn2031   2.126   1_545  S
C1499      C1651   1.478       .  S
O1501      C1506   1.253       .  A
Mn1502     O1505   2.107       .  S
O1503     Mn2050   2.093       .  S
O1504     Mn2059   1.965       .  S
O1504      C1506   1.219       .  S
C1506      C1606   1.482       .  S
C1507      C1508   1.403       .  A
C1507      C1512   1.414   1_655  A
C1508      C1509   1.392       .  A
C1508      H1517   1.082       .  S
C1509      C1510   1.413       .  A
C1509      S1513   1.806       .  S
C1510      C1511   1.408       .  A
C1511      C1512   1.403   1_655  A
S1513      H1516   1.407       .  S
C1519      C1520   1.408   1_655  A
C1519      C1524   1.414       .  A
C1520      C1521   1.401       .  A
C1520      H1529   1.083       .  S
C1521      C1522   1.412   1_455  A
C1521      S1525   1.809       .  S
C1522      C1523   1.403       .  A
C1523      C1524   1.400       .  A
C1523      H1530   1.084       .  S
C1524      S1526   1.793       .  S
S1525      H1528   1.407       .  S
S1526      H1527   1.402       .  S
C1531      C1536   1.415       .  A
C1532      C1533   1.390       .  A
C1532      H1541   1.084       .  S
C1533      S1537   1.807       .  S
C1534      C1535   1.410       .  A
C1535      C1536   1.407       .  A
C1535      H1542   1.083       .  S
C1536      S1538   1.803       .  S
S1537      H1540   1.407       .  S
S1538      H1539   1.400   1_545  S
C1543      C1548   1.417       .  A
C1544      C1545   1.402       .  A
C1544      H1553   1.082       .  S
C1545      S1549   1.803       .  S
C1546      C1547   1.403       .  A
C1547      C1548   1.395       .  A
C1547      H1554   1.084       .  S
C1548      S1550   1.804       .  S
S1549      H1552   1.407       .  S
S1550      H1551   1.408       .  S
C1555      C1556   1.406   1_655  A
C1555      C1560   1.417       .  A
C1556      C1557   1.402       .  A
C1556      H1565   1.082       .  S
C1557      S1561   1.809       .  S
C1559      C1560   1.403       .  A
C1559      H1566   1.083       .  S
S1562      H1563   1.407       .  S
C1567      C2130   1.404       .  A
C1567      C1572   1.413       .  A
C1568      C2129   1.404       .  A
C1568      C1569   1.395       .  A
C1568      H1577   1.083   1_565  S
C1569      C2132   1.413       .  A
C1569      S1573   1.800   1_565  S
C1570      C2131   1.413       .  A
C1570      C1571   1.406       .  A
C1571      C1572   1.403       .  A
C1571      H1578   1.080       .  S
C1572      S1574   1.803       .  S
S1573      H1576   1.398       .  S
S1574      H1575   1.406       .  S
C1579      C1580   1.406       .  A
C1579      C2146   1.414       .  A
C1580      C1581   1.402       .  A
C1580      H1589   1.084       .  S
C1581      C1582   1.413       .  A
C1581      S1585   1.795       .  S
C1582      C2145   1.404       .  A
C1583      C2144   1.404   1_545  A
C1583      C1584   1.392       .  A
C1583      H1590   1.082       .  S
C1584      C2141   1.414   1_545  A
C1584      S1586   1.806       .  S
S1585      H1588   1.406       .  S
S1586      H1587   1.407       .  S
C1591      C2154   1.397       .  A
C1591      C1596   1.410       .  A
C1592      C2153   1.397   1_545  A
C1592      C1593   1.397       .  A
C1592      H1601   1.084       .  S
C1593      C2156   1.424   1_545  A
C1593      S1597   1.802       .  S
C1594      C2155   1.424       .  A
C1594      C1595   1.409       .  A
C1595      C1596   1.401       .  A
C1595      H1602   1.081       .  S
C1596      S1598   1.804       .  S
S1597      H1600   1.406       .  S
S1598      H1599   1.406       .  S
C1603      C2166   1.407       .  A
C1603      C1608   1.415       .  A
C1604      C2165   1.407       .  A
C1604      C1605   1.404       .  A
C1604      H1613   1.084   1_565  S
C1605      C2168   1.412       .  A
C1605      S1609   1.795   1_565  S
C1606      C2167   1.412       .  A
C1606      C1607   1.403       .  A
C1607      C1608   1.393       .  A
C1607      H1614   1.082       .  S
C1608      S1610   1.806       .  S
S1609      H1612   1.406   1_545  S
S1610      H1611   1.407       .  S
C1615      C1897   1.404   1_556  A
C1616      C1896   1.404   1_545  A
C1616      C1617   1.399       .  A
C1616      H1625   1.084       .  S
C1617      C2180   1.412   1_545  A
C1617      S1621   1.805       .  S
C1618      C2179   1.412       .  A
C1618      C1619   1.402       .  A
C1619      C1620   1.400       .  A
C1619      H1626   1.084       .  S
S1621      H1624   1.406       .  S
S1622      H1623   1.406       .  S
C1627      C1628   1.405       .  A
C1627      C1632   1.414       .  A
C1628      C1629   1.390       .  A
C1628      H1637   1.084       .  S
C1629      C1630   1.414       .  A
C1629      S1633   1.807       .  S
C1630      C1631   1.411       .  A
C1631      C1632   1.406       .  A
C1631      H1638   1.083       .  S
C1632      S1634   1.804       .  S
S1633      H1636   1.407       .  S
S1634      H1635   1.404       .  S
C1639      C1640   1.407       .  A
C1639      C1644   1.419       .  A
C1640      C1641   1.403       .  A
C1640      H1649   1.081       .  S
C1641      C1642   1.415       .  A
C1641      S1645   1.803       .  S
C1642      C1643   1.401       .  A
C1643      C1644   1.396       .  A
C1643      H1650   1.084       .  S
C1644      S1646   1.804       .  S
S1645      H1648   1.406       .  S
S1646      H1647   1.408       .  S
C1651      C1652   1.403       .  A
C1651      C1656   1.412       .  A
C1652      C1653   1.393       .  A
C1652      H1661   1.082       .  S
C1653      C1654   1.414       .  A
C1653      S1657   1.806       .  S
C1654      C1655   1.408       .  A
C1655      C1656   1.403       .  A
C1655      H1662   1.084       .  S
C1656      S1658   1.799       .  S
S1657      H1660   1.407       .  S
S1658      H1659   1.406       .  S
C1663      C1664   1.404       .  A
C1663      C1668   1.413       .  A
C1664      C1665   1.403       .  A
C1664      H1673   1.083       .  S
C1665      C1666   1.411       .  A
C1665      S1669   1.795       .  S
C1666      C1667   1.406       .  A
C1667      C1668   1.396       .  A
C1667      H1674   1.084       .  S
C1668      S1670   1.805       .  S
S1669      H1672   1.406       .  S
S1670      H1671   1.407       .  S
C1676      C1677   1.398       .  A
C1676      H1685   1.084       .  S
C1677      C1678   1.412       .  A
C1677      S1681   1.804       .  S
C1678      C1679   1.403       .  A
C1679      C1680   1.399       .  A
C1679      H1686   1.084       .  S
S1681      H1684   1.406       .  S
S1682      H1683   1.407   1_554  S
C1687      C1688   1.403       .  A
C1687      C1692   1.402       .  A
C1687      C1944   1.483       .  S
C1688      C1689   1.403       .  A
C1688      H1693   1.084       .  S
C1689      C1690   1.405       .  A
C1689      C1959   1.478       .  S
C1690      C1691   1.403       .  A
C1690      H1694   1.084       .  S
C1691      C1692   1.403       .  A
C1691      C1935   1.485       .  S
C1692      H1695   1.083       .  S
C1696      C1697   1.402       .  A
C1696      C1701   1.401       .  A
C1696      C1923   1.484       .  S
C1697      C1698   1.408       .  A
C1697      H1702   1.083       .  S
C1698      C1699   1.407       .  A
C1698      C1956   1.483       .  S
C1699      C1700   1.403       .  A
C1699      H1703   1.083       .  S
C1700      C1701   1.404       .  A
C1700      C1911   1.491       .  S
C1701      H1704   1.084       .  S
C1705      C1706   1.400       .  A
C1705      C1710   1.400       .  A
C1705      C1872   1.475       .  S
C1706      C1707   1.403       .  A
C1706      H1711   1.084       .  S
C1707      C1708   1.406       .  A
C1707      C1899   1.476       .  S
C1708      C1709   1.405       .  A
C1708      H1712   1.083       .  S
C1709      C1710   1.405       .  A
C1709      C1884   1.489       .  S
C1710      H1713   1.084       .  S
C1714      C1715   1.401       .  A
C1714      C1719   1.405       .  A
C1714      C1848   1.484       .  S
C1715      C1716   1.401       .  A
C1715      H1720   1.084       .  S
C1716      C1717   1.402       .  A
C1716      C1860   1.485       .  S
C1717      C1718   1.405       .  A
C1717      H1721   1.083       .  S
C1718      C1719   1.408       .  A
C1718      C1896   1.480       .  S
C1719      H1722   1.083       .  S
C1723      C1724   1.403       .  A
C1723      C1728   1.400       .  A
C1724      C1725   1.409       .  A
C1724      H1729   1.082       .  S
C1725      C1726   1.410       .  A
C1726      C1727   1.404       .  A
C1726      H1730   1.083       .  S
C1727      C1728   1.402       .  A
C1728      H1731   1.084       .  S
C1732      C1733   1.404       .  A
C1732      C1737   1.400       .  A
C1732      C1803   1.486       .  S
C1733      C1734   1.406       .  A
C1733      H1738   1.083       .  S
C1734      C1735   1.405       .  A
C1734      C1839   1.484       .  S
C1735      C1736   1.403       .  A
C1735      H1739   1.083       .  S
C1736      C1737   1.404       .  A
C1736      C1791   1.487       .  S
C1737      H1740   1.083       .  S
O1741     Mn1767   2.071       .  S
C1742      C1947   1.485       .  S
C1742      O1775   1.268       .  A
C1742      O1772   1.277       .  A
O1743     Mn1750   2.172       .  S
O1743     Mn1761   2.121       .  S
O1743     Mn1765   2.163       .  S
O1744     Mn1778   2.107       .  S
O1744      C1754   1.273       .  A
O1745     Mn1761   2.129       .  S
O1745      C1768   1.278       .  A
O1746     Mn1765   2.120       .  S
O1746      C1773   1.253       .  A
O1747     Mn1767   1.965       .  S
O1747      C1763   1.218       .  S
C1748      C1788   1.478       .  S
C1748      O1751   1.252       .  A
C1748      O1774   1.219       .  S
O1749     Mn1750   2.173       .  S
O1749     Mn1783   2.121       .  S
O1749     Mn1765   2.171       .  S
Mn1750     O1755   2.104       .  S
O1752     Mn1759   2.078       .  S
O1752      C1754   1.268       .  A
C1753      C1812   1.480       .  S
C1753      O1779   1.254       .  A
C1753      O1766   1.213       .  S
C1754      C1920   1.488       .  S
O1755      C1780   1.252       .  A
O1756     Mn1759   2.115       .  S
O1756     Mn1778   2.123       .  S
O1757     Mn1761   1.972       .  S
O1757     Mn1783   1.960       .  S
O1757      C1780   1.219       .  S
C1758      C1851   1.482       .  S
C1758      O1784   1.271   1_565  A
C1758      O1760   1.271       .  A
Mn1759     O1772   2.124       .  S
O1760     Mn1783   2.093       .  S
Mn1761     O1777   2.080       .  S
Mn1761     O1771   1.951       .  S
O1762     Mn1767   2.101       .  S
C1763      C1863   1.481       .  S
C1763      O1781   1.252       .  A
C1764      C1824   1.483       .  S
C1764      O1777   1.269       .  A
O1766     Mn1769   1.945       .  S
Mn1767     O1785   1.953       .  S
C1768      C1800   1.487       .  S
Mn1769     O1774   1.958       .  S
C1770      C1875   1.493       .  S
C1770      O1776   1.266   1_565  A
C1770      O1786   1.274       .  A
O1771     Mn1783   1.954       .  S
O1771      C1773   1.213       .  S
C1773      C1908   1.480       .  S
O1775     Mn1778   2.072       .  S
C1780      C1932   1.478       .  S
O1782      C1787   1.253       .  A
Mn1783     O1786   2.107       .  S
O1785      C1787   1.219       .  S
C1787      C1887   1.482       .  S
C1788      C1789   1.403       .  A
C1788      C1793   1.414   1_655  A
C1789      C1790   1.392       .  A
C1789      H1798   1.082       .  S
C1790      C1791   1.413       .  A
C1790      S1794   1.806       .  S
C1791      C1792   1.408       .  A
C1792      C1793   1.403   1_655  A
S1794      H1797   1.407       .  S
C1800      C1801   1.408   1_655  A
C1800      C1805   1.414       .  A
C1801      C1802   1.401       .  A
C1801      H1810   1.083       .  S
C1802      C1803   1.412   1_455  A
C1802      S1806   1.809       .  S
C1803      C1804   1.403       .  A
C1804      C1805   1.400       .  A
C1804      H1811   1.084       .  S
C1805      S1807   1.793       .  S
S1806      H1809   1.407       .  S
S1807      H1808   1.402       .  S
C1812      C1817   1.415       .  A
C1813      C1814   1.390       .  A
C1813      H1822   1.084       .  S
C1814      S1818   1.807       .  S
C1815      C1816   1.410       .  A
C1816      C1817   1.407       .  A
C1816      H1823   1.083       .  S
C1817      S1819   1.803       .  S
S1818      H1821   1.407       .  S
S1819      H1820   1.400       .  S
C1824      C1829   1.417       .  A
C1825      C1826   1.402       .  A
C1825      H1834   1.082       .  S
C1826      S1830   1.803       .  S
C1827      C1828   1.403       .  A
C1828      C1829   1.395       .  A
C1828      H1835   1.084       .  S
C1829      S1831   1.804       .  S
S1830      H1833   1.407       .  S
S1831      H1832   1.408       .  S
C1836      C1837   1.406   1_655  A
C1836      C1841   1.417       .  A
C1837      C1838   1.402       .  A
C1837      H1846   1.082       .  S
C1838      C2120   1.412   1_454  A
C1838      S1842   1.809   1_554  S
C1839      C2119   1.412   1_655  A
C1839      C2121   1.403       .  A
C1840      C2120   1.403   1_554  A
C1840      C1841   1.403       .  A
C1840      H1847   1.083   1_554  S
S1842      H2126   1.407   1_556  S
S1843      H1844   1.407       .  S
H1845      S2123   1.407       .  S
C1848      C1853   1.413       .  A
C1849      C1850   1.395       .  A
C1849      H1858   1.083       .  S
C1850      S1854   1.800       .  S
C1851      C1852   1.406       .  A
C1852      C1853   1.403       .  A
C1852      H1859   1.080       .  S
C1853      S1855   1.803       .  S
S1854      H1857   1.398       .  S
S1855      H1856   1.406       .  S
C1860      C1861   1.406       .  A
C1861      C1862   1.402       .  A
C1861      H1870   1.084       .  S
C1862      C1863   1.413       .  A
C1862      S1866   1.795       .  S
C1864      C1865   1.392       .  A
C1864      H1871   1.082       .  S
C1865      S1867   1.806       .  S
S1866      H1869   1.406       .  S
S1867      H1868   1.407       .  S
C1872      C1877   1.410       .  A
C1873      C1874   1.397       .  A
C1873      H1882   1.084       .  S
C1874      S1878   1.802       .  S
C1875      C1876   1.409       .  A
C1876      C1877   1.401       .  A
C1876      H1883   1.081       .  S
C1877      S1879   1.804       .  S
S1878      H1881   1.406       .  S
S1879      H1880   1.406       .  S
C1884      C1889   1.415       .  A
C1885      C1886   1.404       .  A
C1885      H1894   1.084       .  S
C1886      S1890   1.795       .  S
C1887      C1888   1.403       .  A
C1888      C1889   1.393       .  A
C1888      H1895   1.082       .  S
C1889      S1891   1.806       .  S
S1890      H1893   1.406       .  S
S1891      H1892   1.407       .  S
C1896      C2182   1.414       .  A
C1897      C1898   1.399       .  A
C1897      H1906   1.084       .  S
C1898      S1902   1.805       .  S
C1899      C1900   1.402       .  A
C1900      C1901   1.400       .  A
C1900      H1907   1.084       .  S
C1901      C2177   1.414   1_554  A
C1901      S2184   1.803   1_554  S
S1902      H1905   1.406       .  S
S1903      C2182   1.803       .  S
S1903      H1904   1.406       .  S
C1908      C1909   1.405       .  A
C1908      C1913   1.414       .  A
C1909      C1910   1.390       .  A
C1909      H1918   1.084       .  S
C1910      C1911   1.414       .  A
C1910      S1914   1.807       .  S
C1911      C1912   1.411       .  A
C1912      C1913   1.406       .  A
C1912      H1919   1.083       .  S
C1913      S1915   1.804       .  S
S1914      H1917   1.407       .  S
S1915      H1916   1.404       .  S
C1920      C1921   1.407       .  A
C1920      C1925   1.419       .  A
C1921      C1922   1.403       .  A
C1921      H1930   1.081       .  S
C1922      C1923   1.415       .  A
C1922      S1926   1.803       .  S
C1923      C1924   1.401       .  A
C1924      C1925   1.396       .  A
C1924      H1931   1.084       .  S
C1925      S1927   1.804       .  S
S1926      H1929   1.406       .  S
S1927      H1928   1.408       .  S
C1932      C1933   1.403       .  A
C1932      C1937   1.412       .  A
C1933      C1934   1.393       .  A
C1933      H1942   1.082       .  S
C1934      C1935   1.414       .  A
C1934      S1938   1.806       .  S
C1935      C1936   1.408       .  A
C1936      C1937   1.403       .  A
C1936      H1943   1.084       .  S
C1937      S1939   1.799       .  S
S1938      H1941   1.407       .  S
S1939      H1940   1.406       .  S
C1944      C1945   1.404       .  A
C1944      C1949   1.413       .  A
C1945      C1946   1.403       .  A
C1945      H1954   1.083       .  S
C1946      C1947   1.411       .  A
C1946      S1950   1.795       .  S
C1947      C1948   1.406       .  A
C1948      C1949   1.396       .  A
C1948      H1955   1.084       .  S
C1949      S1951   1.805       .  S
S1950      H1953   1.406       .  S
S1951      H1952   1.407       .  S
C1956      C2238   1.405       .  A
C1956      C2242   1.415       .  A
C1957      C2237   1.405   1_554  A
C1957      C1958   1.398       .  A
C1957      H1966   1.084       .  S
C1958      C1959   1.412       .  A
C1958      S1962   1.804       .  S
C1959      C1960   1.403       .  A
C1960      C1961   1.399       .  A
C1960      H1967   1.084       .  S
C1961      C2237   1.415   1_554  A
C1961      S2244   1.804       .  S
S1962      H1965   1.406       .  S
S1963      C2242   1.804       .  S
S1963      H1964   1.407       .  S
C1968      C1969   1.403       .  A
C1968      C1973   1.402       .  A
C1968      C2225   1.483       .  S
C1969      C1970   1.403       .  A
C1969      H1974   1.084       .  S
C1970      C1971   1.405       .  A
C1970      C2240   1.478       .  S
C1971      C1972   1.403       .  A
C1971      H1975   1.084       .  S
C1972      C1973   1.403       .  A
C1972      C2216   1.485       .  S
C1973      H1976   1.083       .  S
C1977      C1978   1.402       .  A
C1977      C1982   1.401       .  A
C1977      C2204   1.484       .  S
C1978      C1979   1.408       .  A
C1978      H1983   1.083       .  S
C1979      C1980   1.407       .  A
C1979      C2237   1.483       .  S
C1980      C1981   1.403       .  A
C1980      H1984   1.083       .  S
C1981      C1982   1.404       .  A
C1981      C2192   1.491       .  S
C1982      H1985   1.084       .  S
C1986      C1987   1.400       .  A
C1986      C1991   1.400       .  A
C1986      C2153   1.475       .  S
C1987      C1988   1.403       .  A
C1987      H1992   1.084       .  S
C1988      C1989   1.406       .  A
C1988      C2180   1.476       .  S
C1989      C1990   1.405       .  A
C1989      H1993   1.083       .  S
C1990      C1991   1.405       .  A
C1990      C2165   1.489       .  S
C1991      H1994   1.084       .  S
C1995      C1996   1.401       .  A
C1995      C2000   1.405       .  A
C1995      C2129   1.484       .  S
C1996      C1997   1.401       .  A
C1996      H2001   1.084       .  S
C1997      C1998   1.402       .  A
C1997      C2141   1.485       .  S
C1998      C1999   1.405       .  A
C1998      H2002   1.083       .  S
C1999      C2000   1.408       .  A
C1999      C2177   1.480       .  S
C2000      H2003   1.083       .  S
C2004      C2005   1.403       .  A
C2004      C2009   1.400       .  A
C2005      C2006   1.409       .  A
C2005      H2010   1.082       .  S
C2006      C2007   1.410       .  A
C2007      C2008   1.404       .  A
C2007      H2011   1.083       .  S
C2008      C2009   1.402       .  A
C2009      H2012   1.084       .  S
C2013      C2014   1.404       .  A
C2013      C2018   1.400       .  A
C2013      C2084   1.486       .  S
C2014      C2015   1.406       .  A
C2014      H2019   1.083       .  S
C2015      C2016   1.405       .  A
C2015      C2120   1.484       .  S
C2016      C2017   1.403       .  A
C2016      H2020   1.083       .  S
C2017      C2018   1.404       .  A
C2017      C2072   1.487       .  S
C2018      H2021   1.083       .  S
O2022     Mn2048   2.071       .  S
C2023      C2228   1.485       .  S
C2023      O2056   1.268       .  A
C2023      O2053   1.277       .  A
O2024     Mn2031   2.172       .  S
O2024     Mn2042   2.121       .  S
O2024     Mn2046   2.163       .  S
O2025     Mn2059   2.107       .  S
O2025      C2035   1.273       .  A
O2026     Mn2042   2.129       .  S
O2026      C2049   1.278       .  A
O2027     Mn2046   2.120       .  S
O2027      C2054   1.253       .  A
O2028     Mn2048   1.965       .  S
O2028      C2044   1.218       .  S
C2029      C2069   1.478       .  S
C2029      O2032   1.252       .  A
C2029      O2055   1.219       .  S
O2030     Mn2031   2.173       .  S
O2030     Mn2064   2.121       .  S
O2030     Mn2046   2.171       .  S
Mn2031     O2036   2.104       .  S
O2033     Mn2040   2.078       .  S
O2033      C2035   1.268       .  A
C2034      C2093   1.480       .  S
C2034      O2060   1.254       .  A
C2034      O2047   1.213       .  S
C2035      C2201   1.488       .  S
O2036      C2061   1.252       .  A
O2037     Mn2040   2.115       .  S
O2037     Mn2059   2.123       .  S
O2038     Mn2042   1.972       .  S
O2038     Mn2064   1.960       .  S
O2038      C2061   1.219       .  S
C2039      C2132   1.482       .  S
C2039      O2065   1.271   1_565  A
C2039      O2041   1.271       .  A
Mn2040     O2053   2.124       .  S
O2041     Mn2064   2.093       .  S
Mn2042     O2058   2.080       .  S
Mn2042     O2052   1.951       .  S
O2043     Mn2048   2.101       .  S
C2044      C2144   1.481       .  S
C2044      O2062   1.252       .  A
C2045      C2105   1.483       .  S
C2045      O2058   1.269       .  A
O2047     Mn2050   1.945       .  S
Mn2048     O2066   1.953       .  S
C2049      C2081   1.487       .  S
Mn2050     O2055   1.958       .  S
C2051      C2156   1.493       .  S
C2051      O2057   1.266   1_565  A
C2051      O2067   1.274       .  A
O2052     Mn2064   1.954       .  S
O2052      C2054   1.213       .  S
C2054      C2189   1.480       .  S
O2056     Mn2059   2.072       .  S
C2061      C2213   1.478       .  S
O2063      C2068   1.253       .  A
Mn2064     O2067   2.107       .  S
O2066      C2068   1.219       .  S
C2068      C2168   1.482       .  S
C2069      C2070   1.403       .  A
C2069      C2074   1.414   1_655  A
C2070      C2071   1.392       .  A
C2070      H2079   1.082       .  S
C2071      C2072   1.413       .  A
C2071      S2075   1.806       .  S
C2072      C2073   1.408       .  A
C2073      C2074   1.403   1_655  A
S2075      H2078   1.407       .  S
C2081      C2082   1.408   1_655  A
C2081      C2086   1.414       .  A
C2082      C2083   1.401       .  A
C2082      H2091   1.083       .  S
C2083      C2084   1.412   1_455  A
C2083      S2087   1.809       .  S
C2084      C2085   1.403       .  A
C2085      C2086   1.400       .  A
C2085      H2092   1.084       .  S
C2086      S2088   1.793       .  S
S2087      H2090   1.407       .  S
S2088      H2089   1.402       .  S
C2093      C2098   1.415       .  A
C2094      C2095   1.390       .  A
C2094      H2103   1.084       .  S
C2095      S2099   1.807       .  S
C2096      C2097   1.410       .  A
C2097      C2098   1.407       .  A
C2097      H2104   1.083       .  S
C2098      S2100   1.803       .  S
S2099      H2102   1.407       .  S
S2100      H2101   1.400       .  S
C2105      C2110   1.417       .  A
C2106      C2107   1.402       .  A
C2106      H2115   1.082       .  S
C2107      S2111   1.803       .  S
C2108      C2109   1.403       .  A
C2109      C2110   1.395       .  A
C2109      H2116   1.084       .  S
C2110      S2112   1.804       .  S
S2111      H2114   1.407       .  S
S2112      H2113   1.408       .  S
C2117      C2118   1.406   1_655  A
C2117      C2122   1.417       .  A
C2118      C2119   1.402       .  A
C2118      H2127   1.082       .  S
C2119      S2123   1.809       .  S
C2121      C2122   1.403       .  A
C2121      H2128   1.083       .  S
S2124      H2125   1.407       .  S
C2129      C2134   1.413       .  A
C2130      C2131   1.395       .  A
C2130      H2139   1.083       .  S
C2131      S2135   1.800       .  S
C2132      C2133   1.406       .  A
C2133      C2134   1.403       .  A
C2133      H2140   1.080       .  S
C2134      S2136   1.803       .  S
S2135      H2138   1.398       .  S
S2136      H2137   1.406       .  S
C2141      C2142   1.406       .  A
C2142      C2143   1.402       .  A
C2142      H2151   1.084       .  S
C2143      C2144   1.413       .  A
C2143      S2147   1.795       .  S
C2145      C2146   1.392       .  A
C2145      H2152   1.082       .  S
C2146      S2148   1.806       .  S
S2147      H2150   1.406       .  S
S2148      H2149   1.407       .  S
C2153      C2158   1.410       .  A
C2154      C2155   1.397       .  A
C2154      H2163   1.084       .  S
C2155      S2159   1.802       .  S
C2156      C2157   1.409       .  A
C2157      C2158   1.401       .  A
C2157      H2164   1.081       .  S
C2158      S2160   1.804       .  S
S2159      H2162   1.406       .  S
S2160      H2161   1.406       .  S
C2165      C2170   1.415       .  A
C2166      C2167   1.404       .  A
C2166      H2175   1.084       .  S
C2167      S2171   1.795       .  S
C2168      C2169   1.403       .  A
C2169      C2170   1.393       .  A
C2169      H2176   1.082       .  S
C2170      S2172   1.806       .  S
S2171      H2174   1.406       .  S
S2172      H2173   1.407       .  S
C2178      C2179   1.399       .  A
C2178      H2187   1.084       .  S
C2179      S2183   1.805       .  S
C2180      C2181   1.402       .  A
C2181      C2182   1.400       .  A
C2181      H2188   1.084       .  S
S2183      H2186   1.406       .  S
S2184      H2185   1.406       .  S
C2189      C2190   1.405       .  A
C2189      C2194   1.414       .  A
C2190      C2191   1.390       .  A
C2190      H2199   1.084       .  S
C2191      C2192   1.414       .  A
C2191      S2195   1.807       .  S
C2192      C2193   1.411       .  A
C2193      C2194   1.406       .  A
C2193      H2200   1.083       .  S
C2194      S2196   1.804       .  S
S2195      H2198   1.407       .  S
S2196      H2197   1.404       .  S
C2201      C2202   1.407       .  A
C2201      C2206   1.419       .  A
C2202      C2203   1.403       .  A
C2202      H2211   1.081       .  S
C2203      C2204   1.415       .  A
C2203      S2207   1.803       .  S
C2204      C2205   1.401       .  A
C2205      C2206   1.396       .  A
C2205      H2212   1.084       .  S
C2206      S2208   1.804       .  S
S2207      H2210   1.406       .  S
S2208      H2209   1.408       .  S
C2213      C2214   1.403       .  A
C2213      C2218   1.412       .  A
C2214      C2215   1.393       .  A
C2214      H2223   1.082       .  S
C2215      C2216   1.414       .  A
C2215      S2219   1.806       .  S
C2216      C2217   1.408       .  A
C2217      C2218   1.403       .  A
C2217      H2224   1.084       .  S
C2218      S2220   1.799       .  S
S2219      H2222   1.407       .  S
S2220      H2221   1.406       .  S
C2225      C2226   1.404       .  A
C2225      C2230   1.413       .  A
C2226      C2227   1.403       .  A
C2226      H2235   1.083       .  S
C2227      C2228   1.411       .  A
C2227      S2231   1.795       .  S
C2228      C2229   1.406       .  A
C2229      C2230   1.396       .  A
C2229      H2236   1.084       .  S
C2230      S2232   1.805       .  S
S2231      H2234   1.406       .  S
S2232      H2233   1.407       .  S
C2238      C2239   1.398       .  A
C2238      H2247   1.084       .  S
C2239      C2240   1.412       .  A
C2239      S2243   1.804       .  S
C2240      C2241   1.403       .  A
C2241      C2242   1.399       .  A
C2241      H2248   1.084       .  S
S2243      H2246   1.406       .  S
S2244      H2245   1.407   1_554  S
