geometry optimzed in LAMMPS
_audit_creation_date              2020-11-30 
_audit_creation_method            'lammps2cif' 
_symmetry_space_group_name_H-M    'P1' 
_symmetry_Int_Tables_number       1 
_symmetry_cell_setting            triclinic 
loop_ 
_symmetry_equiv_pos_as_xyz 
  x,y,z 
_cell_length_a                    33.84086693 
_cell_length_b                    33.78021633928324 
_cell_length_c                    33.8510274890962 
_cell_angle_alpha                 90.25300205019006 
_cell_angle_beta                  90.22979604415448 
_cell_angle_gamma                 89.88751500583206 
loop_ 
_atom_site_label 
_atom_site_type_symbol 
_atom_site_fract_x 
_atom_site_fract_y 
_atom_site_fract_z 
_atom_site_charge 
C1          C  0.23803147  0.86215681  0.03618446     0.81800
N2          N  0.23796576  0.84219149  0.00130363    -0.76500
C3          C  0.23717949  0.86205431  0.96652196     0.84200
N4          N  0.23671882  0.90222908  0.96663469    -0.76500
C5          C  0.23734279  0.92254389  0.00123241     0.84300
N6          N  0.23742454  0.90241389  0.03601533    -0.78200
C7          C  0.61463091  0.02627216  0.03449914     0.81800
N8          N  0.61379921  0.98599874  0.03410491    -0.76500
C9          C  0.61260519  0.96600711  0.99905832     0.84200
N10         N  0.61252565  0.98649739  0.96441096    -0.76500
C11         C  0.61323268  0.02671296  0.96469285     0.84300
N12         N  0.61449841  0.04599334  0.99976184    -0.78200
C13         C  0.83816197  0.98187365  0.31518589     0.81800
N14         N  0.87827613  0.98027431  0.31578486    -0.76500
C15         C  0.89723026  0.94469165  0.31526426     0.84200
N16         N  0.87572749  0.91057305  0.31365249    -0.76500
C17         C  0.83548056  0.91189959  0.31293929     0.84300
N18         N  0.81731650  0.94768351  0.31360221    -0.78200
C19         C  0.00532477  0.98379932  0.67508401     0.81800
N20         N  0.02367928  0.94809636  0.67418875    -0.76500
C21         C  0.00313181  0.91373154  0.67407455     0.84200
N22         N  0.96298485  0.91509756  0.67527398    -0.76500
C23         C  0.94374961  0.95058637  0.67585741     0.84300
N24         N  0.96506692  0.98485391  0.67606045    -0.78200
C25         C  0.95370515  0.63112496  0.08024950     0.81800
N26         N  0.91910111  0.63073963  0.10031242    -0.76500
C27         C  0.88387064  0.63218530  0.08106185     0.84200
N28         N  0.88360105  0.63413724  0.04092056    -0.76500
C29         C  0.91817054  0.63445265  0.02042175     0.84300
N30         N  0.95309115  0.63319846  0.04022688    -0.78200
C31         C  0.88522064  0.26056611  0.92078283     0.81800
N32         N  0.88635252  0.26057764  0.96082460    -0.76500
C33         C  0.92153126  0.25992985  0.98043215     0.84200
N34         N  0.95594919  0.25874600  0.95953993    -0.76500
C35         C  0.95505359  0.25875771  0.91920302     0.84300
N36         N  0.91956613  0.25959070  0.90042414    -0.78200
C37         C  0.60816124  0.86331673  0.96120757     0.81800
N38         N  0.60696396  0.84243015  0.99520707    -0.76500
C39         C  0.60769136  0.86076428  0.03093098     0.84200
N40         N  0.60973060  0.90107465  0.03228607    -0.76500
C41         C  0.61084874  0.92244540  0.99821315     0.84300
N42         N  0.61036581  0.90335221  0.96282134    -0.78200
C43         C  0.23480630  0.02560245  0.03739169     0.81800
N44         N  0.23673029  0.98559580  0.03630933    -0.76500
C45         C  0.23590071  0.96602103  0.00123122     0.84200
N46         N  0.23277054  0.98679538  0.96677675    -0.76500
C47         C  0.23073428  0.02712751  0.96765398     0.84300
N48         N  0.23159509  0.04585451  0.00312894    -0.78200
C49         C  0.84066121  0.98805577  0.68431447     0.81800
N50         N  0.88068490  0.98709987  0.68037341    -0.76500
C51         C  0.90014990  0.95170922  0.67855477     0.84200
N52         N  0.87932242  0.91725684  0.68121142    -0.76500
C53         C  0.83941792  0.91818605  0.68570388     0.84300
N54         N  0.82059947  0.95352376  0.68739641    -0.78200
C55         C  0.00238510  0.97636216  0.31842965     0.81800
N56         N  0.96215475  0.97748020  0.31795087    -0.76500
C57         C  0.94082244  0.94327759  0.31589019     0.84200
N58         N  0.95997100  0.90782755  0.31379955    -0.76500
C59         C  0.00012083  0.90649878  0.31437846     0.84300
N60         N  0.02074751  0.94074713  0.31652724    -0.78200
C61         C  0.88191983  0.63608815  0.91742822     0.81800
N62         N  0.91624143  0.63727637  0.89695093    -0.76500
C63         C  0.95150143  0.63845233  0.91611170     0.84200
N64         N  0.95220013  0.63798397  0.95633652    -0.76500
C65         C  0.91778809  0.63617360  0.97705342     0.84300
N66         N  0.88275196  0.63581660  0.95744917    -0.78200
C67         C  0.88503671  0.26280534  0.08340812     0.81800
N68         N  0.88622172  0.26276965  0.04334112    -0.76500
C69         C  0.92140885  0.26013397  0.02405966     0.84200
N70         N  0.95566361  0.25684344  0.04525982    -0.76500
C71         C  0.95467502  0.25653930  0.08555785     0.84300
N72         N  0.91925495  0.25948281  0.10389188    -0.78200
C73         C  0.33472544  0.48474567  0.82732429     0.81800
N74         N  0.31614054  0.44916232  0.82819617    -0.76500
C75         C  0.33660561  0.41470169  0.82814436     0.84200
N76         N  0.37668001  0.41589253  0.82702910    -0.76500
C77         C  0.39617931  0.45111303  0.82643021     0.84300
N78         N  0.37507333  0.48558145  0.82622313    -0.78200
C79         C  0.33514864  0.47396158  0.18741430     0.81800
N80         N  0.31634600  0.43850905  0.18751898    -0.76500
C81         C  0.33697614  0.40406881  0.18692669     0.84200
N82         N  0.37706672  0.40514075  0.18628642    -0.76500
C83         C  0.39634392  0.44041993  0.18578648     0.84300
N84         N  0.37530947  0.47475627  0.18662862    -0.78200
C85         C  0.10971398  0.36680156  0.53651826     0.81800
N86         N  0.11204970  0.34576837  0.50250065    -0.76500
C87         C  0.11112596  0.36407386  0.46694736     0.84200
N88         N  0.10752006  0.40421183  0.46549180    -0.76500
C89         C  0.10520295  0.42569825  0.49967786     0.84300
N90         N  0.10688840  0.40684282  0.53509782    -0.78200
O91         O  0.17689127  0.26594580  0.68172838    -0.76900
C92         C  0.24117658  0.27789254  0.79112865     0.84100
O93         O  0.23700683  0.13642631  0.70373412    -0.78000
O94         O  0.19762362  0.16449562  0.83895444    -0.79500
O95         O  0.08322448  0.22591751  0.78149115    -0.79300
O96         O  0.11380434  0.24897364  0.68899639    -0.78000
Zn97       Zn  0.20873542  0.23227123  0.71930356     1.55700
O98         O  0.12564833  0.22942520  0.83183072    -0.79400
Cd99       Cd  0.11715924  0.20701724  0.73371635     1.59700
Cd100      Cd  0.18879815  0.14176677  0.74209787     1.59600
O101        O  0.09198954  0.15432891  0.71343176    -0.79300
O102        O  0.17381305  0.19889958  0.75016185    -1.89800
Cd103      Cd  0.17940060  0.21347850  0.80734848     1.59900
O104        O  0.14136019  0.11092449  0.71812733    -0.79300
O105        O  0.21897629  0.26010206  0.81569359    -0.78000
C106        C  0.25527239  0.16255460  0.68367098     0.84600
C107        C  0.14055013  0.26950234  0.67229482     0.84200
O108        O  0.24071879  0.26919764  0.75442104    -0.76900
C109        C  0.09074303  0.23251750  0.81793414     0.85100
O110        O  0.24665979  0.19921854  0.68669788    -0.77000
C111        C  0.10558647  0.11928197  0.70934528     0.85200
C112        C  0.20393378  0.12803862  0.83115104     0.85500
O113        O  0.20173578  0.11458602  0.79591054    -0.79400
C114        C  0.73920323  0.36434287  0.53647662     0.81800
N115        N  0.74012990  0.40463354  0.53563039    -0.76500
C116        C  0.74133514  0.42406742  0.50049052     0.84200
N117        N  0.74054043  0.40302254  0.46621260    -0.76500
C118        C  0.73961302  0.36284577  0.46677485     0.84300
N119        N  0.73907144  0.34373392  0.50194251    -0.78200
C120        C  0.38951047  0.12638561  0.58406495     0.81800
N121        N  0.38931374  0.12594370  0.54379766    -0.76500
C122        C  0.42397234  0.12443630  0.52340468     0.84200
N123        N  0.45879458  0.12476024  0.54350641    -0.76500
C124        C  0.45921574  0.12514267  0.58362131     0.84300
N125        N  0.42457431  0.12581033  0.60369638    -0.78200
O126        O  0.60042395  0.26985220  0.75234768    -0.76900
C127        C  0.70415228  0.27022257  0.67382125     0.84100
O128        O  0.61144892  0.13698254  0.70279766    -0.78000
O129        O  0.75459587  0.15878139  0.72249923    -0.79500
O130        O  0.71232160  0.23192120  0.83684334    -0.79300
O131        O  0.61828795  0.26056319  0.81502900    -0.78000
Zn132      Zn  0.63515478  0.23387634  0.71940717     1.55700
O133        O  0.75578804  0.23275579  0.78743000    -0.79400
Cd134      Cd  0.65973825  0.21505065  0.80957776     1.59700
Cd135      Cd  0.65672669  0.14409242  0.74366336     1.59600
O136        O  0.63993641  0.16565594  0.83979537    -0.79300
O137        O  0.66897768  0.20141715  0.75260848    -1.89800
Cd138      Cd  0.72578238  0.21081044  0.73884437     1.59900
O139        O  0.64082911  0.11648293  0.79570124    -0.79300
O140        O  0.73033423  0.25016302  0.69215562    -0.78000
C141        C  0.59275640  0.16253577  0.68234015     0.84600
C142        C  0.59721398  0.27802603  0.78900476     0.84200
O143        O  0.66755711  0.26760080  0.68226499    -0.76900
C144        C  0.74712981  0.23773145  0.82375186     0.85100
O145        O  0.59963513  0.19946740  0.68590484    -0.77000
C146        C  0.63535224  0.12922295  0.83074032     0.85200
C147        C  0.74198035  0.12363684  0.71707267     0.85500
O148        O  0.70594677  0.11452461  0.72295697    -0.79400
C149        C  0.10329135  0.53064834  0.53268215     0.81800
N150        N  0.10130547  0.54930210  0.49740614    -0.76500
C151        C  0.09986653  0.52894722  0.46285152     0.84200
N152        N  0.10101220  0.48870548  0.46364999    -0.76500
C153        C  0.10294983  0.46928513  0.49876508     0.84300
N154        N  0.10425944  0.49039246  0.53318513    -0.78200
O155        O  0.16662292  0.76731098  0.81819665    -0.76900
C156        C  0.10144651  0.77905749  0.70872828     0.84100
O157        O  0.10395515  0.64009917  0.79650176    -0.78000
O158        O  0.14206271  0.66658888  0.66061406    -0.79500
O159        O  0.25863936  0.72372209  0.71920229    -0.79300
O160        O  0.22882866  0.74672390  0.81176642    -0.78000
Zn161      Zn  0.13416558  0.73458594  0.78036587     1.55700
O162        O  0.21783295  0.72832436  0.66786095    -0.79400
Cd163      Cd  0.22411915  0.70632158  0.76611159     1.59700
Cd164      Cd  0.15157801  0.64352264  0.75755316     1.59600
O165        O  0.24827493  0.65370509  0.78563969    -0.79300
O166        O  0.16777895  0.69997437  0.74932999    -1.89800
Cd167      Cd  0.16318011  0.71457237  0.69216685     1.59900
O168        O  0.19859526  0.61094223  0.78046355    -0.79300
O169        O  0.12423219  0.76166710  0.68421247    -0.78000
C170        C  0.08666768  0.66709967  0.81655229     0.84600
C171        C  0.20286894  0.76831757  0.82848892     0.84200
O172        O  0.10187797  0.77073402  0.74541246    -0.76900
C173        C  0.25252870  0.73012272  0.68260005     0.85100
O174        O  0.09618676  0.70338002  0.81339587    -0.77000
C175        C  0.23443505  0.61891445  0.78935249     0.85200
C176        C  0.13358876  0.63078583  0.66883263     0.85500
O177        O  0.13582933  0.61751224  0.70400827    -0.79400
C178        C  0.50138117  0.48371542  0.81785393     0.81800
N179        N  0.46111835  0.48514308  0.82095667    -0.76500
C180        C  0.43984100  0.45086789  0.82376818     0.84200
N181        N  0.45895993  0.41533871  0.82278719    -0.76500
C182        C  0.49888564  0.41377198  0.82002657     0.84300
N183        N  0.51951730  0.44786355  0.81751757    -0.78200
C184        C  0.38985920  0.75587427  0.58230005     0.81800
N185        N  0.42575571  0.75835475  0.59993307    -0.76500
C186        C  0.45939828  0.76193440  0.57886454     0.84200
N187        N  0.45717154  0.76282713  0.53887039    -0.76500
C188        C  0.42142749  0.76085479  0.52030538     0.84300
N189        N  0.38778606  0.75723993  0.54208709    -0.78200
C190        C  0.74011075  0.52694936  0.46258146     0.81800
N191        N  0.74069117  0.54778686  0.49685101    -0.76500
C192        C  0.74167687  0.52937218  0.53236319     0.84200
N193        N  0.74205039  0.48911523  0.53340308    -0.76500
C194        C  0.74167123  0.46767266  0.49926076     0.84300
N195        N  0.74030289  0.48672608  0.46387266    -0.78200
O196        O  0.73680620  0.77122071  0.75100451    -0.76900
C197        C  0.63406003  0.76729005  0.82392730     0.84100
O198        O  0.73081956  0.63655778  0.79694103    -0.78000
O199        O  0.58851583  0.65334105  0.77640811    -0.79500
O200        O  0.63199198  0.73259282  0.66292505    -0.79300
O201        O  0.72489463  0.76179048  0.68713842    -0.78000
Zn202      Zn  0.70426704  0.73208328  0.78068863     1.55700
O203        O  0.58676725  0.72760173  0.71058055    -0.79400
Cd204      Cd  0.68414837  0.71507334  0.69042187     1.59700
Cd205      Cd  0.68692456  0.64216945  0.75437907     1.59600
O206        O  0.70536685  0.66667241  0.65931788    -0.79300
O207        O  0.67285492  0.69912769  0.74637729    -1.89800
Cd208      Cd  0.61555205  0.70625029  0.75980233     1.59900
O209        O  0.70588186  0.61656184  0.70195765    -0.79300
O210        O  0.60821269  0.74679143  0.80559586    -0.78000
C211        C  0.74760311  0.66283446  0.81827881     0.84600
C212        C  0.74207852  0.78063556  0.71508605     0.84200
O213        O  0.67065276  0.76411475  0.81644149    -0.76900
C214        C  0.59654041  0.73597251  0.67522651     0.85100
O215        O  0.73960608  0.69944149  0.81465675    -0.77000
C216        C  0.71143723  0.63027968  0.66737834     0.85200
C217        C  0.60210087  0.61832177  0.78041641     0.85500
O218        O  0.63827257  0.61045600  0.77329421    -0.79400
C219        C  0.38910154  0.12298768  0.41933178     0.81800
N220        N  0.38929521  0.12350190  0.45948970    -0.76500
C221        C  0.42403545  0.12380633  0.47978385     0.84200
N222        N  0.45880448  0.12453879  0.45956094    -0.76500
C223        C  0.45885507  0.12401143  0.41931965     0.84300
N224        N  0.42390483  0.12317382  0.39959759    -0.78200
O225        O  0.60337617  0.26547210  0.25113451    -0.76900
C226        C  0.59227544  0.15922491  0.31970830     0.84100
O227        O  0.73229686  0.24555257  0.31259620    -0.78000
O228        O  0.70549621  0.11063969  0.28161279    -0.79500
O229        O  0.64483439  0.16229822  0.16311527    -0.79300
O230        O  0.62136890  0.25578241  0.18859047    -0.78000
Zn231      Zn  0.63704747  0.22948114  0.28453304     1.55700
O232        O  0.64277440  0.11278944  0.20632881    -0.79400
Cd233      Cd  0.66301436  0.21134818  0.19456674     1.59700
Cd234      Cd  0.72775991  0.20660025  0.26532480     1.59600
O235        O  0.71475703  0.23033132  0.16837786    -0.79300
O236        O  0.67090638  0.19727693  0.25136767    -1.89800
Cd237      Cd  0.65703280  0.14026938  0.25937847     1.59900
O238        O  0.75853570  0.22961895  0.21766356    -0.79300
O239        O  0.61005797  0.13362896  0.29838605    -0.78000
C240        C  0.70600951  0.26573164  0.33057989     0.84600
C241        C  0.60038716  0.27336404  0.21446233     0.84200
O242        O  0.60061339  0.19593722  0.31775265    -0.76900
C243        C  0.63912109  0.12595797  0.17128216     0.85100
O244        O  0.66947030  0.26304059  0.32175060    -0.77000
C245        C  0.74956803  0.23609804  0.18160326     0.85200
C246        C  0.74176295  0.11928655  0.28720565     0.85500
O247        O  0.75510542  0.15402985  0.28132575    -0.79400
C248        C  0.45429518  0.76166197  0.41627866     0.81800
N249        N  0.45446727  0.76171422  0.45633307    -0.76500
C250        C  0.41997165  0.76148739  0.47679553     0.84200
N251        N  0.38488840  0.76058735  0.45682282    -0.76500
C252        C  0.38443679  0.76063656  0.41652596     0.84300
N253        N  0.41928128  0.76106943  0.39679944    -0.78200
C254        C  0.49970972  0.47664479  0.18426329     0.81800
N255        N  0.45954208  0.47621723  0.18548900    -0.76500
C256        C  0.43973404  0.44121331  0.18466613     0.84200
N257        N  0.46029335  0.40665407  0.18372728    -0.76500
C258        C  0.50037243  0.40685977  0.18256429     0.84300
N259        N  0.51985514  0.44191000  0.18271017    -0.78200
O260        O  0.66874217  0.62625816  0.31924392    -0.76900
C261        C  0.58895706  0.72960090  0.31788012     0.84100
O262        O  0.61874572  0.62936210  0.18867650    -0.78000
O263        O  0.63448078  0.77392928  0.20212228    -0.79500
O264        O  0.74887920  0.74030382  0.28076869    -0.79300
O265        O  0.73075089  0.64598413  0.31003282    -0.78000
Zn266      Zn  0.63487995  0.65969919  0.28329514     1.55700
O267        O  0.69873727  0.78282305  0.27616075    -0.79400
Cd268      Cd  0.72400578  0.68635365  0.26410114     1.59700
Cd269      Cd  0.65862718  0.67614700  0.19274756     1.59600
O270        O  0.75561965  0.66617170  0.21575899    -0.79300
O271        O  0.66694544  0.69257952  0.24924123    -1.89800
Cd272      Cd  0.65134238  0.74949254  0.25572987     1.59900
O273        O  0.71178948  0.65983064  0.16675088    -0.79300
O274        O  0.60500296  0.75506543  0.29537283    -0.78000
C275        C  0.59798398  0.61262729  0.21517853     0.84600
C276        C  0.70545257  0.62429576  0.32748019     0.84200
O277        O  0.59883116  0.69318524  0.31700149    -0.76900
C278        C  0.73494948  0.77531824  0.28376317     0.85100
O279        O  0.60084868  0.62244956  0.25144837    -0.77000
C280        C  0.74710435  0.65783638  0.17991936     0.85200
C281        C  0.63071315  0.75979326  0.16732721     0.85500
O282        O  0.63751540  0.72335990  0.15985230    -0.79400
O283        O  0.10005602  0.69275782  0.17910924    -0.76900
C284        C  0.09817494  0.77093954  0.28207127     0.84100
O285        O  0.23091517  0.74094195  0.18711963    -0.78000
O286        O  0.21309584  0.72458043  0.33089497    -0.79500
O287        O  0.13398721  0.61114663  0.29164310    -0.79300
O288        O  0.10740503  0.63037785  0.19875449    -0.78000
Zn289      Zn  0.13538540  0.72584000  0.21356282     1.55700
O290        O  0.13759565  0.66102616  0.33473682    -0.79400
Cd291      Cd  0.15282059  0.63621542  0.23945377     1.59700
Cd292      Cd  0.22506495  0.70029026  0.23295883     1.59600
O293        O  0.20066794  0.60365756  0.22020524    -0.79300
O294        O  0.16816903  0.69299161  0.24712719    -1.89800
Cd295      Cd  0.16020723  0.70830234  0.30371836     1.59900
O296        O  0.25054712  0.64655465  0.21672362    -0.79300
O297        O  0.12012474  0.75461807  0.30804730    -0.78000
C298        C  0.20513534  0.76256623  0.16993565     0.84600
C299        C  0.09084925  0.65629630  0.17704015     0.84200
O300        O  0.10020841  0.76156428  0.24567225    -0.76900
C301        C  0.12948754  0.62510083  0.32634511     0.85100
O302        O  0.16854776  0.76010693  0.17827881    -0.77000
C303        C  0.23682350  0.61152741  0.21338540     0.85200
C304        C  0.24813182  0.72827473  0.31765191     0.85500
O305        O  0.25640952  0.72097199  0.28158601    -0.79400
O306        O  0.24056287  0.25815551  0.25274084    -0.76900
C307        C  0.14095183  0.26147672  0.33316798     0.84100
O308        O  0.23439988  0.12698546  0.30193135    -0.78000
O309        O  0.09117068  0.14701400  0.29076642    -0.79500
O310        O  0.12550192  0.21995732  0.17197936    -0.79300
O311        O  0.21880642  0.25060877  0.19105472    -0.78000
Zn312      Zn  0.20774468  0.22241745  0.28648443     1.55700
O313        O  0.08371601  0.21728144  0.22247512    -0.79400
Cd314      Cd  0.17901339  0.20456695  0.19795185     1.59700
Cd315      Cd  0.18735999  0.13317911  0.26282596     1.59600
O316        O  0.20028489  0.15661510  0.16715307    -0.79300
O317        O  0.17278826  0.19015070  0.25490363    -1.89800
Cd318      Cd  0.11659282  0.19959471  0.27111029     1.59900
O319        O  0.20356877  0.10684620  0.21008374    -0.79300
O320        O  0.11305974  0.24315915  0.31535650    -0.78000
C321        C  0.25286588  0.15310048  0.32198538     0.84600
C322        C  0.24145496  0.26720505  0.21629924     0.84200
O323        O  0.17701162  0.25583629  0.32421979    -0.76900
C324        C  0.09075790  0.22343570  0.18599318     0.85100
O325        O  0.24478754  0.18974263  0.31907708    -0.77000
C326        C  0.20764128  0.12057302  0.17535541     0.85200
C327        C  0.10397160  0.11152063  0.29342137     0.85500
O328        O  0.13940371  0.10242208  0.28432363    -0.79400
C329        C  0.55629533  0.52041977  0.16631555     0.25200
C330        C  0.52188577  0.51404012  0.18853124    -0.23000
C331        C  0.51117350  0.54177729  0.21764626     0.20100
C332        C  0.53542474  0.57437817  0.22564337     0.25100
C333        C  0.57047269  0.58028894  0.20412403    -0.22900
C334        C  0.58014402  0.55346965  0.17371731     0.20000
F335        F  0.61384385  0.55796927  0.15259219    -0.12900
F336        F  0.56718401  0.49421747  0.13781125    -0.15200
F337        F  0.52486794  0.59988010  0.25489226    -0.15200
F338        F  0.47849561  0.53605955  0.24005761    -0.12900
C339        C  0.31301360  0.73944160  0.40933940     0.25200
C340        C  0.34701395  0.75727088  0.39340914    -0.23000
C341        C  0.34624731  0.76887003  0.35342658     0.20100
C342        C  0.31367126  0.76050485  0.32941823     0.25100
C343        C  0.28058744  0.74075141  0.34466127    -0.22900
C344        C  0.28009692  0.73133614  0.38520680     0.20000
F345        F  0.24871627  0.71224133  0.40109482    -0.12900
F346        F  0.31227431  0.72783180  0.44767552    -0.15200
F347        F  0.31474229  0.77160730  0.29092466    -0.15200
F348        F  0.37736666  0.78801115  0.33707988    -0.12900
C349        C  0.49459718  0.77572137  0.35604936     0.25200
C350        C  0.49150831  0.75835406  0.39365655    -0.23000
C351        C  0.52273245  0.73455661  0.40757773     0.20100
C352        C  0.55504816  0.72610907  0.38328019     0.25100
C353        C  0.55722978  0.74208728  0.34506388    -0.22900
C354        C  0.52732500  0.76791692  0.33210861     0.20000
F355        F  0.52855244  0.78368914  0.29530377    -0.12900
F356        F  0.46552728  0.79971015  0.34210643    -0.15200
F357        F  0.58397439  0.70174659  0.39688021    -0.15200
F358        F  0.52095534  0.71747689  0.44376118    -0.12900
C359        C  0.53579465  0.30840074  0.22118748     0.25200
C360        C  0.57239745  0.30445958  0.20207994    -0.23000
C361        C  0.58310629  0.33217426  0.17317455     0.20100
C362        C  0.55875192  0.36476978  0.16547485     0.25100
C363        C  0.52296633  0.36964645  0.18592471    -0.22900
C364        C  0.51107613  0.34048499  0.21288170     0.20000
F365        F  0.47674655  0.34433733  0.23318601    -0.12900
F366        F  0.52429034  0.28152841  0.24853688    -0.15200
F367        F  0.57052861  0.39205104  0.13865094    -0.15200
F368        F  0.61824703  0.32908078  0.15416587    -0.12900
C369        C  0.52564188  0.15461380  0.40945328     0.25200
C370        C  0.49598151  0.12840020  0.39653433    -0.23000
C371        C  0.50010057  0.10985157  0.35938105     0.20100
C372        C  0.53238349  0.11847766  0.33509322     0.25100
C373        C  0.56073604  0.14646815  0.34709018    -0.22900
C374        C  0.55741318  0.16391847  0.38476522     0.20000
F375        F  0.58476607  0.19045599  0.39752058    -0.12900
F376        F  0.52270351  0.17315403  0.44498636    -0.15200
F377        F  0.53464540  0.10117582  0.29888169    -0.15200
F378        F  0.47239743  0.08387604  0.34619475    -0.12900
C379        C  0.28840044  0.15886083  0.38641971     0.25200
C380        C  0.28507569  0.14123018  0.34886494    -0.23000
C381        C  0.31448973  0.11481071  0.33608218     0.20100
C382        C  0.34774560  0.10767353  0.35970411     0.25100
C383        C  0.35169676  0.12621781  0.39685994    -0.22900
C384        C  0.32116671  0.15104603  0.41044589     0.20000
F385        F  0.32412274  0.16976537  0.44591395    -0.12900
F386        F  0.26018257  0.18429992  0.39955065    -0.15200
F387        F  0.37649650  0.08323897  0.34587857    -0.15200
F388        F  0.31225979  0.09786612  0.29969108    -0.12900
C389        C  0.74895978  0.59406901  0.56830669     0.25200
C390        C  0.73911547  0.55353819  0.56910332    -0.23000
C391        C  0.72381431  0.53764055  0.60428735     0.20100
C392        C  0.71633018  0.56218976  0.63691741     0.25100
C393        C  0.72398536  0.60316810  0.63509311    -0.22900
C394        C  0.74140067  0.61850538  0.60075477     0.20000
F395        F  0.75072019  0.65749382  0.59817481    -0.12900
F396        F  0.76544462  0.61053430  0.53578852    -0.15200
F397        F  0.69948703  0.54606919  0.66942547    -0.15200
F398        F  0.71394636  0.49877930  0.60659073    -0.12900
C399        C  0.75490571  0.58540508  0.41996892     0.25200
C400        C  0.73602858  0.54861855  0.42481190    -0.23000
C401        C  0.70988169  0.53524567  0.39525933     0.20100
C402        C  0.70086140  0.55936539  0.36284970     0.25100
C403        C  0.71848139  0.59687646  0.35896463    -0.22900
C404        C  0.74648424  0.60912524  0.38719858     0.20000
F405        F  0.76383623  0.64521505  0.38445370    -0.12900
F406        F  0.78089367  0.59889708  0.44754676    -0.15200
F407        F  0.67431210  0.54634975  0.33558024    -0.15200
F408        F  0.69107841  0.49999390  0.39896973    -0.12900
C409        C  0.56493275  0.73714892  0.60790341     0.25200
C410        C  0.56503597  0.74898476  0.64784493    -0.23000
C411        C  0.53261584  0.77032518  0.66264254     0.20100
C412        C  0.49943664  0.77694607  0.63907117     0.25100
C413        C  0.49771905  0.76210331  0.60016855    -0.22900
C414        C  0.53143974  0.74359347  0.58421183     0.20000
F415        F  0.53101590  0.72907952  0.54674990    -0.12900
F416        F  0.59595070  0.71671973  0.59262501    -0.15200
F417        F  0.46839797  0.79695915  0.65485878    -0.15200
F418        F  0.53258282  0.78395323  0.70045938    -0.12900
C419        C  0.50961299  0.55710802  0.80274564     0.25200
C420        C  0.52619147  0.51998638  0.81231396    -0.23000
C421        C  0.56784468  0.51693726  0.81419018     0.20100
C422        C  0.59195242  0.54891850  0.80469491     0.25100
C423        C  0.57557546  0.58547891  0.79327413    -0.22900
C424        C  0.53400158  0.58946664  0.79342381     0.20000
F425        F  0.51670672  0.62431357  0.78339358    -0.12900
F426        F  0.46982253  0.56201719  0.80116843    -0.15200
F427        F  0.63171421  0.54361260  0.80661341    -0.15200
F428        F  0.58596122  0.48269179  0.82489670    -0.12900
C429        C  0.28265841  0.74309697  0.61539625     0.25200
C430        C  0.28704043  0.73859455  0.65664706    -0.23000
C431        C  0.32539983  0.74033784  0.67285718     0.20100
C432        C  0.35822170  0.74608547  0.64883915     0.25100
C433        C  0.35408068  0.75045341  0.60748598    -0.22900
C434        C  0.31571302  0.74893302  0.59116230     0.20000
F435        F  0.30990565  0.75272099  0.55166049    -0.12900
F436        F  0.24643414  0.74126172  0.59813072    -0.15200
F437        F  0.39421650  0.74663585  0.66672038    -0.15200
F438        F  0.33173862  0.73588285  0.71224341    -0.12900
C439        C  0.08992057  0.59168607  0.42481350     0.25200
C440        C  0.10057887  0.55129733  0.42513970    -0.23000
C441        C  0.11542028  0.53417229  0.39017858     0.20100
C442        C  0.12275982  0.55771558  0.35703115     0.25100
C443        C  0.11568795  0.59883275  0.35835075    -0.22900
C444        C  0.09768916  0.61516823  0.39202104     0.20000
F445        F  0.08815892  0.65422664  0.39361913    -0.12900
F446        F  0.07262815  0.60899639  0.45660611    -0.15200
F447        F  0.13909437  0.54057779  0.32460763    -0.15200
F448        F  0.12509527  0.49518084  0.38861909    -0.12900
C449        C  0.09665785  0.59531194  0.56917842     0.25200
C450        C  0.10684036  0.55475089  0.56955393    -0.23000
C451        C  0.12275314  0.53873563  0.60459818     0.20100
C452        C  0.12999547  0.56306093  0.63754687     0.25100
C453        C  0.12179226  0.60393407  0.63608232    -0.22100
C454        C  0.10430083  0.61952490  0.60179397     0.20000
F455        F  0.09465344  0.65851608  0.59959450    -0.12900
F456        F  0.07945191  0.61206859  0.53706753    -0.15200
F457        F  0.14704567  0.54691695  0.67009681    -0.15200
F458        F  0.13312259  0.49995756  0.60657877    -0.12900
C459        C  0.57964105  0.33702665  0.83063240     0.25200
C460        C  0.56910422  0.30951692  0.80112792    -0.23000
C461        C  0.53277322  0.31426898  0.78118536     0.20100
C462        C  0.50835750  0.34685146  0.78934006     0.25100
C463        C  0.52029202  0.37570049  0.81689885    -0.22900
C464        C  0.55571143  0.37007337  0.83804855     0.20000
F465        F  0.56766350  0.39723283  0.86525343    -0.12900
F466        F  0.61435600  0.33335430  0.85053998    -0.15200
F467        F  0.47439440  0.35157448  0.76837238    -0.15200
F468        F  0.52124695  0.28772794  0.75321046    -0.12900
C469        C  0.50593944  0.10674491  0.63796725     0.25200
C470        C  0.49661164  0.13059554  0.60535090    -0.23000
C471        C  0.52120437  0.16261016  0.59604583     0.20100
C472        C  0.55320797  0.17222449  0.62043745     0.25100
C473        C  0.56169123  0.14948838  0.65421728    -0.22900
C474        C  0.53859750  0.11573844  0.66192508     0.20000
F475        F  0.54626490  0.09266900  0.69380430    -0.12900
F476        F  0.48300095  0.07512922  0.64695603    -0.15200
F477        F  0.57551036  0.20426562  0.61132523    -0.15200
F478        F  0.51275818  0.18616097  0.56470248    -0.12900
C479        C  0.70762560  0.35303479  0.40087553     0.25200
C480        C  0.73465352  0.34010024  0.42974977    -0.23000
C481        C  0.75421352  0.30371030  0.42437870     0.20100
C482        C  0.74621954  0.28024812  0.39111477     0.25100
C483        C  0.71779836  0.29236284  0.36322715    -0.22900
C484        C  0.69892001  0.32915153  0.36817236     0.20000
F485        F  0.67168444  0.34183026  0.34148479    -0.12900
F486        F  0.68790741  0.38779985  0.40541049    -0.15200
F487        F  0.76468544  0.24471770  0.38729047    -0.15200
F488        F  0.78075767  0.29067217  0.45157839    -0.12900
C489        C  0.75276768  0.30592829  0.57992669     0.25200
C490        C  0.73413769  0.34276102  0.57412920    -0.23000
C491        C  0.70751933  0.35673906  0.60284351     0.20100
C492        C  0.69826963  0.33346957  0.63568680     0.25100
C493        C  0.71625316  0.29628670  0.64099801    -0.22900
C494        C  0.74426237  0.28313449  0.61327514     0.20000
F495        F  0.76176465  0.24715254  0.61728052    -0.12900
F496        F  0.77881276  0.29167263  0.55293614    -0.15200
F497        F  0.67138311  0.34711996  0.66213863    -0.15200
F498        F  0.68865017  0.39189808  0.59798475    -0.12900
C499        C  0.31284704  0.11867323  0.66532595     0.25200
C500        C  0.28749337  0.15051479  0.65625106    -0.23000
C501        C  0.29426259  0.17203522  0.62132837     0.20100
C502        C  0.32613728  0.16262491  0.59665930     0.25100
C503        C  0.35250173  0.13207784  0.60675443    -0.22900
C504        C  0.34534541  0.10994285  0.64111338     0.20000
F505        F  0.37016770  0.08008065  0.65148390    -0.12900
F506        F  0.30736403  0.09718671  0.69865099    -0.15200
F507        F  0.33252314  0.18494173  0.56404417    -0.15200
F508        F  0.27013271  0.20251629  0.61112705    -0.12900
C509        C  0.09450673  0.34196428  0.39743724     0.25200
C510        C  0.11893465  0.34014355  0.43112419    -0.23000
C511        C  0.15044117  0.31300009  0.43179857     0.20100
C512        C  0.15725634  0.28783100  0.39983474     0.25100
C513        C  0.13242240  0.28870352  0.36645545    -0.22900
C514        C  0.10089017  0.31597587  0.36543861     0.20000
F515        F  0.07681966  0.31790665  0.33332774    -0.12900
F516        F  0.06387939  0.36792931  0.39605386    -0.15200
F517        F  0.18771228  0.26165592  0.40205538    -0.15200
F518        F  0.17502366  0.31099040  0.46355529    -0.12900
C519        C  0.08916007  0.31380861  0.58295412     0.25200
C520        C  0.11388002  0.34592688  0.57436189    -0.23000
C521        C  0.14551152  0.35478340  0.59977131     0.20100
C522        C  0.15354305  0.33061122  0.63231615     0.25100
C523        C  0.12960133  0.29748363  0.64036141    -0.22900
C524        C  0.09659573  0.29005943  0.61593786     0.20000
F525        F  0.07275144  0.25852890  0.62259511    -0.12900
F526        F  0.05826713  0.30493336  0.55878688    -0.15200
F527        F  0.18522438  0.33924983  0.65551710    -0.15200
F528        F  0.17014249  0.38535168  0.59164609    -0.12900
C529        C  0.25596484  0.32771390  0.17679745     0.25200
C530        C  0.26862694  0.29881748  0.20376674    -0.23000
C531        C  0.30608958  0.30253325  0.22156955     0.20100
C532        C  0.32954723  0.33572932  0.21424987     0.25100
C533        C  0.31556803  0.36609560  0.18954714    -0.22900
C534        C  0.27904259  0.36128943  0.17009099     0.20000
F535        F  0.26523814  0.38958939  0.14521503    -0.12900
F536        F  0.22009602  0.32478185  0.15890880    -0.15200
F537        F  0.36471435  0.33931847  0.23337809    -0.15200
F538        F  0.31960380  0.27438538  0.24679768    -0.12900
C539        C  0.27233746  0.51181856  0.17641379     0.25200
C540        C  0.31169079  0.51102439  0.19011758    -0.23000
C541        C  0.32724953  0.54511322  0.20854360     0.20100
C542        C  0.30343144  0.57854828  0.21460128     0.25100
C543        C  0.26356075  0.57848873  0.20255158    -0.22900
C544        C  0.24857418  0.54507683  0.18264603     0.20000
F545        F  0.21066060  0.54442434  0.16934799    -0.12900
F546        F  0.25655958  0.48023370  0.15710106    -0.15200
F547        F  0.31878840  0.61003592  0.23440184    -0.15200
F548        F  0.36481179  0.54542632  0.22279645    -0.12900
C549        C  0.27712826  0.37214662  0.84090718     0.25200
C550        C  0.31486245  0.37672274  0.82402550    -0.23000
C551        C  0.32953533  0.34644668  0.79940272     0.20100
C552        C  0.30592119  0.31381218  0.78958835     0.25100
C553        C  0.26758203  0.31012416  0.80503707    -0.22900
C554        C  0.25387898  0.33898630  0.83178700     0.20000
F555        F  0.21700566  0.33637648  0.84722985    -0.12900
F556        F  0.26235838  0.40021124  0.86565281    -0.15200
F557        F  0.32035591  0.28602994  0.76436910    -0.15200
F558        F  0.36582935  0.34952877  0.78276391    -0.12900
C559        C  0.32675715  0.55731198  0.80994993     0.25200
C560        C  0.31029228  0.52142986  0.82316137    -0.23000
C561        C  0.26897475  0.51980286  0.82897828     0.20100
C562        C  0.24471082  0.55173407  0.81900135     0.25100
C563        C  0.26086185  0.58663055  0.80350380    -0.22900
C564        C  0.30233995  0.58951866  0.80027479     0.20000
F565        F  0.31937180  0.62282478  0.78590747    -0.12900
F566        F  0.36632554  0.56093793  0.80465104    -0.15200
F567        F  0.20511617  0.54815041  0.82427734    -0.15200
F568        F  0.25146540  0.48694850  0.84376220    -0.12900
C569        C  0.81323223  0.27123284  0.16827673     0.25200
C570        C  0.78097977  0.24909912  0.15414046    -0.23000
C571        C  0.78069645  0.23687275  0.11425589     0.20100
C572        C  0.81352865  0.24366544  0.09009202     0.25100
C573        C  0.84716211  0.26291003  0.10535792    -0.22900
C574        C  0.84582867  0.27825529  0.14410882     0.20000
F575        F  0.87657952  0.29939272  0.15903445    -0.12900
F576        F  0.81357707  0.28551453  0.20584280    -0.15200
F577        F  0.81342334  0.22881924  0.05275457    -0.15200
F578        F  0.74988654  0.21580386  0.09935493    -0.12900
C579        C  0.02152697  0.24782700  0.17569644     0.25200
C580        C  0.05731129  0.23441358  0.15942723    -0.23000
C581        C  0.05996632  0.23048411  0.11796568     0.20100
C582        C  0.02720430  0.23863588  0.09365000     0.25100
C583        C  0.99101090  0.25098052  0.11019972    -0.22900
C584        C  0.98907834  0.25608646  0.15162782     0.20000
F585        F  0.95558377  0.26890864  0.16956537    -0.12900
F586        F  0.01755453  0.25304414  0.21529355    -0.15200
F587        F  0.03077852  0.23317845  0.05406728    -0.15200
F588        F  0.09380145  0.21739940  0.10084607    -0.12900
C589        C  0.81661316  0.66780349  0.90594168     0.25200
C590        C  0.84418847  0.63834763  0.89608356    -0.23000
C591        C  0.83717468  0.61368017  0.86334079     0.20100
C592        C  0.80402939  0.61976882  0.83936379     0.25100
C593        C  0.77808157  0.65135229  0.84731648    -0.22900
C594        C  0.78392024  0.67445857  0.88159109     0.20000
F595        F  0.75857127  0.70426665  0.89093032    -0.12900
F596        F  0.82277926  0.69196861  0.93754266    -0.15200
F597        F  0.79881369  0.59643624  0.80701551    -0.15200
F598        F  0.86302437  0.58432204  0.85406364    -0.12900
C599        C  0.99241706  0.62237248  0.85658356     0.25200
C600        C  0.98828637  0.64251127  0.89287043    -0.23000
C601        C  0.01803546  0.66901622  0.90488875     0.20100
C602        C  0.05046352  0.67635368  0.88039483     0.25100
C603        C  0.05423285  0.65668039  0.84382504    -0.22900
C604        C  0.02531214  0.62902203  0.83253728     0.20000
F605        F  0.02776107  0.61000223  0.79720977    -0.12900
F606        F  0.96426985  0.59653745  0.84411323    -0.15200
F607        F  0.07807066  0.70304059  0.89228051    -0.15200
F608        F  0.01466121  0.68952944  0.93930223    -0.12900
C609        C  0.08332652  0.83200280  0.32071290     0.25200
C610        C  0.07068508  0.80271837  0.29403962    -0.23000
C611        C  0.03277545  0.80569539  0.27701393     0.20100
C612        C  0.00848539  0.83829094  0.28547079     0.25100
C613        C  0.02212481  0.86876403  0.31048088    -0.22900
C614        C  0.05940640  0.86474057  0.32873131     0.20000
F615        F  0.07321277  0.89303208  0.35379843    -0.12900
F616        F  0.11995780  0.83023545  0.33715397    -0.15200
F617        F  0.97270661  0.84109695  0.26739194    -0.15200
F618        F  0.01950168  0.77731449  0.25174093    -0.12900
C619        C  0.03563614  0.08254765  0.30024761     0.25200
C620        C  0.07683119  0.07930475  0.30579435    -0.23000
C621        C  0.09226903  0.04347634  0.32029223     0.20100
C622        C  0.06766701  0.01100547  0.32660870     0.25100
C623        C  0.02681937  0.01311180  0.31810529    -0.22900
C624        C  0.01090816  0.04981222  0.30624785     0.20000
F625        F  0.97174269  0.05369663  0.29835093    -0.12900
F626        F  0.01938868  0.11669030  0.28670937    -0.15200
F627        F  0.08437075  0.97717113  0.34039088    -0.15200
F628        F  0.13153888  0.03941451  0.32776691    -0.12900
C629        C  0.81562309  0.85025412  0.66582807     0.25200
C630        C  0.81641627  0.88182067  0.69302946    -0.23000
C631        C  0.79264238  0.87994468  0.72684871     0.20100
C632        C  0.76888261  0.84700972  0.73379754     0.25100
C633        C  0.76770030  0.81525930  0.70666735    -0.22900
C634        C  0.79106183  0.81735715  0.67235241     0.20000
F635        F  0.79049527  0.78745253  0.64544835    -0.12900
F636        F  0.83752587  0.85192723  0.63237858    -0.15200
F637        F  0.74603582  0.84682174  0.76670461    -0.15200
F638        F  0.79253990  0.91017777  0.75345121    -0.12900
C639        C  0.77883251  0.02707804  0.67400496     0.25200
C640        C  0.81826260  0.02578306  0.68737544    -0.23000
C641        C  0.83393993  0.05919271  0.70689071     0.20100
C642        C  0.80973424  0.09204504  0.71519865     0.25100
C643        C  0.76951379  0.09194146  0.70408662    -0.22900
C644        C  0.75481127  0.05961133  0.68231315     0.20000
F645        F  0.71676416  0.05915626  0.66938976    -0.12900
F646        F  0.76309559  0.99635240  0.65330800    -0.15200
F647        F  0.82503736  0.12277214  0.73620480    -0.15200
F648        F  0.87185287  0.05911797  0.72016125    -0.12900
C649        C  0.21234336  0.03540878  0.89521696     0.25200
C650        C  0.22659711  0.05145054  0.93107321    -0.23000
C651        C  0.23509377  0.09235523  0.93256495     0.20100
C652        C  0.22841076  0.11659425  0.90001294     0.25100
C653        C  0.21339798  0.10093518  0.86448045    -0.22900
C654        C  0.20583598  0.05989364  0.86226709     0.20000
F655        F  0.19045131  0.04364797  0.82884107    -0.12900
F656        F  0.20315683  0.99639868  0.89234575    -0.15200
F657        F  0.23673924  0.15577263  0.90358546    -0.15200
F658        F  0.24998243  0.10952754  0.96571809    -0.12900
C659        C  0.21637586  0.03058079  0.10899583     0.25200
C660        C  0.23374108  0.04736408  0.07527205    -0.23000
C661        C  0.24708508  0.08673380  0.07698741     0.20100
C662        C  0.24024408  0.10988164  0.11037863     0.25100
C663        C  0.22022218  0.09410044  0.14298848    -0.22900
C664        C  0.20970887  0.05379566  0.14265937     0.20000
F665        F  0.19057375  0.03749915  0.17377541    -0.12900
F666        F  0.20345066  0.99254584  0.10859559    -0.15200
F667        F  0.25263617  0.14810283  0.11046133    -0.15200
F668        F  0.26628690  0.10320299  0.04602807    -0.12900
C669        C  0.58820073  0.80705141  0.91736086     0.25200
C670        C  0.61001648  0.84205818  0.92314383    -0.23000
C671        C  0.63641461  0.85441497  0.89376405     0.20100
C672        C  0.64273910  0.83085790  0.86039249     0.25100
C673        C  0.62229760  0.79491719  0.85551678    -0.22900
C674        C  0.59403523  0.78382239  0.88359102     0.20000
F675        F  0.57413033  0.74914513  0.87976746    -0.12900
F676        F  0.56194436  0.79479786  0.94493368    -0.15200
F677        F  0.66983153  0.84256617  0.83336161    -0.15200
F678        F  0.65819230  0.88782695  0.89859779    -0.12900
C679        C  0.60001145  0.79535088  0.06553428     0.25200
C680        C  0.60873625  0.83621871  0.06750097    -0.23000
C681        C  0.62085653  0.85225950  0.10409541     0.20100
C682        C  0.62623752  0.82778105  0.13704319     0.25100
C683        C  0.61984616  0.78660607  0.13422225    -0.22900
C684        C  0.60565347  0.77096712  0.09830443     0.20000
F685        F  0.59759794  0.73175266  0.09451019    -0.12900
F686        F  0.58648396  0.77840287  0.03164766    -0.15200
F687        F  0.63971114  0.84430862  0.17114458    -0.15200
F688        F  0.62934129  0.89135936  0.10782164    -0.12900
C689        C  0.81496824  0.23764313  0.91309538     0.25200
C690        C  0.84722020  0.25962459  0.89896423    -0.23000
C691        C  0.84406913  0.27812673  0.86192349     0.20100
C692        C  0.81051079  0.27271717  0.83839933     0.25100
C693        C  0.77924471  0.24882973  0.85142651    -0.22900
C694        C  0.78121973  0.23232545  0.88952430     0.20000
F695        F  0.75180519  0.20863462  0.90283029    -0.12900
F696        F  0.81714637  0.21895700  0.94847668    -0.15200
F697        F  0.80890441  0.29032410  0.80243893    -0.15200
F698        F  0.87381047  0.30109739  0.84813076    -0.12900
C699        C  0.99112488  0.26814957  0.85508691     0.25200
C700        C  0.99173874  0.25608694  0.89500381    -0.23000
C701        C  0.02667365  0.23903894  0.91006893     0.20100
C702        C  0.05934893  0.23261166  0.88540501     0.25100
C703        C  0.05779312  0.24288789  0.84506227    -0.22900
C704        C  0.02355427  0.26143093  0.83048957     0.20000
F705        F  0.02131528  0.27315860  0.79221831    -0.12900
F706        F  0.95893386  0.28640108  0.83943875    -0.15200
F707        F  0.09176186  0.21439442  0.90064884    -0.15200
F708        F  0.02870469  0.22669300  0.94813330    -0.12900
C709        C  0.77896889  0.65796412  0.11284226     0.25200
C710        C  0.77966701  0.64669497  0.15285634    -0.23000
C711        C  0.81322191  0.62711205  0.16765018     0.20100
C712        C  0.84612300  0.62065329  0.14368710     0.25100
C713        C  0.84662161  0.63411122  0.10430605    -0.22900
C714        C  0.81214582  0.65185722  0.08881541     0.20000
F715        F  0.81110211  0.66532189  0.05109089    -0.12900
F716        F  0.74710857  0.67709559  0.09753471    -0.15200
F717        F  0.87771771  0.60146717  0.15942654    -0.15200
F718        F  0.81436906  0.61438184  0.20563819    -0.12900
C719        C  0.02292604  0.65575362  0.08849846     0.25200
C720        C  0.99145064  0.63249626  0.10227325    -0.23000
C721        C  0.99518149  0.61336584  0.13898749     0.20100
C722        C  0.02885187  0.61908156  0.16237168     0.25100
C723        C  0.05897750  0.64454642  0.14971385    -0.22900
C724        C  0.05621437  0.66201393  0.11221877     0.20000
F725        F  0.08540199  0.68601199  0.09896354    -0.12900
F726        F  0.02048376  0.67457775  0.05321207    -0.15200
F727        F  0.03073989  0.60187337  0.19851615    -0.15200
F728        F  0.96582649  0.58983190  0.15269176    -0.12900
C729        C  0.03496574  0.81172104  0.70824839     0.25200
C730        C  0.07421114  0.81030738  0.69476111    -0.23000
C731        C  0.08791244  0.84044166  0.66995903     0.20100
C732        C  0.06375980  0.87291554  0.66116311     0.25100
C733        C  0.02525493  0.87578433  0.67679394    -0.22900
C734        C  0.01051171  0.84394500  0.69899983     0.20000
F735        F  0.97331454  0.84498680  0.71383917    -0.12900
F736        F  0.02052801  0.78213967  0.73103092    -0.15200
F737        F  0.07853555  0.90214292  0.63815258    -0.15200
F738        F  0.12559979  0.83978216  0.65633512    -0.12900
C739        C  0.01326657  0.05716551  0.68992789     0.25200
C740        C  0.02983428  0.02052088  0.67849292    -0.23000
C741        C  0.07118579  0.01850501  0.67306870     0.20100
C742        C  0.09531807  0.05096194  0.68154489     0.25100
C743        C  0.07908301  0.08677629  0.69540288    -0.22900
C744        C  0.03758138  0.08988964  0.69818511     0.20000
F745        F  0.02041121  0.12401908  0.71075261    -0.12900
F746        F  0.97366170  0.06114653  0.69482234    -0.15200
F747        F  0.13493198  0.04687873  0.67660677    -0.15200
F748        F  0.08891616  0.98478295  0.66018486    -0.12900
C749        C  0.77006510  0.87668219  0.31781379     0.25200
C750        C  0.81093553  0.87528187  0.30948838    -0.23000
C751        C  0.82705014  0.83928088  0.29572964     0.20100
C752        C  0.80270343  0.80633862  0.28877151     0.25100
C753        C  0.76159120  0.80858352  0.29518345    -0.22900
C754        C  0.74582034  0.84396354  0.31059175     0.20000
F755        F  0.70664989  0.84716802  0.31864751    -0.12900
F756        F  0.75305641  0.90989053  0.33282190    -0.15200
F757        F  0.81927636  0.77284000  0.27391363    -0.15200
F758        F  0.86611264  0.83623346  0.28726409    -0.12900
C759        C  0.83224690  0.05315531  0.29425284     0.25200
C760        C  0.81656611  0.02006581  0.31387460    -0.23000
C761        C  0.77794924  0.02238140  0.32904062     0.20100
C762        C  0.75439731  0.05550479  0.32192751     0.25100
C763        C  0.76895930  0.08736619  0.29980364    -0.22900
C764        C  0.80861932  0.08658663  0.28731212     0.20000
F765        F  0.82374954  0.11694643  0.26603964    -0.12900
F766        F  0.86945846  0.05222943  0.27943035    -0.15200
F767        F  0.71692308  0.05603373  0.33615322    -0.15200
F768        F  0.76253438  0.99215512  0.35026970    -0.12900
C769        C  0.63769844  0.06117296  0.86085883     0.25200
C770        C  0.62477086  0.10088874  0.86231983    -0.23000
C771        C  0.60399779  0.11408663  0.89573435     0.20100
C772        C  0.59828752  0.08903496  0.92784825     0.25100
C773        C  0.61371481  0.05024096  0.92774164    -0.22900
C774        C  0.63232419  0.03610162  0.89334203     0.20000
F775        F  0.64748420  0.99888357  0.89193091    -0.12900
F776        F  0.65773951  0.04723188  0.82901887    -0.15200
F777        F  0.57788450  0.10311553  0.95936274    -0.15200
F778        F  0.58948876  0.15156145  0.89763050    -0.12900
C779        C  0.60326822  0.08904657  0.07211577     0.25200
C780        C  0.61652375  0.04945370  0.07180246    -0.23000
C781        C  0.63400038  0.03399720  0.10628520     0.20100
C782        C  0.63997375  0.05834041  0.13947889     0.25100
C783        C  0.62876203  0.09855299  0.13862223    -0.22900
C784        C  0.60956738  0.11326871  0.10488049     0.20000
F785        F  0.59705815  0.15146827  0.10330244    -0.12900
F786        F  0.58435447  0.10481326  0.04044247    -0.15200
F787        F  0.65875508  0.04311142  0.17152426    -0.15200
F788        F  0.64726428  0.99605597  0.10726680    -0.12900
C789        C  0.24382459  0.78181569  0.88872987     0.25200
C790        C  0.21464718  0.79421886  0.86168585    -0.23000
C791        C  0.19492475  0.83031025  0.86822972     0.20100
C792        C  0.20368617  0.85324683  0.90150159     0.25100
C793        C  0.23174516  0.84011796  0.92925724    -0.22900
C794        C  0.25199819  0.80441320  0.92247679     0.20000
F795        F  0.27938404  0.79120028  0.94875628    -0.12900
F796        F  0.26292843  0.74678080  0.88365373    -0.15200
F797        F  0.18304556  0.88721880  0.90769688    -0.15200
F798        F  0.16672781  0.84319446  0.84266498    -0.12900
C799        C  0.20531220  0.85111570  0.10137773     0.25200
C800        C  0.23395159  0.83986564  0.07350032    -0.23000
C801        C  0.25555677  0.80478006  0.07958759     0.20100
C802        C  0.24771117  0.78064120  0.11218559     0.25100
C803        C  0.21736875  0.79064014  0.13874006    -0.22900
C804        C  0.19678701  0.82653480  0.13342416     0.20000
F805        F  0.16783049  0.83753537  0.15890381    -0.12900
F806        F  0.18372622  0.88464711  0.09624878    -0.15200
F807        F  0.26820158  0.74631366  0.11640286    -0.15200
F808        F  0.28380121  0.79346732  0.05347481    -0.12900
loop_ 
_geom_bond_atom_site_label_1 
_geom_bond_atom_site_label_2 
_geom_bond_distance 
_geom_bond_site_symmetry_2 
_ccdc_geom_bond_type 
C1            N2   1.357       .  A
C1            N6   1.360       .  A
C1          C800   1.481       .  S
N2            C3   1.358   1_554  A
C3            N4   1.357       .  A
C3          C793   1.471       .  S
N4            C5   1.355   1_556  A
C5            N6   1.362       .  A
C5           C45   1.469       .  S
C7            N8   1.361   1_545  A
C7           N12   1.354   1_554  A
C7          C780   1.484       .  S
N8            C9   1.363   1_554  A
C9           N10   1.364       .  A
C9           C41   1.473       .  S
N10          C11   1.359   1_565  A
C11          N12   1.352       .  A
C11         C773   1.485       .  S
C13          N14   1.359       .  A
C13          N18   1.355       .  A
C13         C760   1.482   1_565  S
N14          C15   1.361       .  A
C15          N16   1.365       .  A
C15          C57   1.476       .  S
N16          C17   1.363       .  A
C17          N18   1.355       .  A
C17         C750   1.495       .  S
C19          N20   1.356       .  A
C19          N24   1.363   1_455  A
C19         C740   1.497   1_565  S
N20          C21   1.354       .  A
C21          N22   1.360   1_455  A
C21         C733   1.486       .  S
N22          C23   1.363       .  A
C23          N24   1.365       .  A
C23          C51   1.479       .  S
C25          N26   1.356       .  A
C25          N30   1.357       .  A
C25         C720   1.477       .  S
N26          C27   1.357       .  A
C27          N28   1.361       .  A
C27         C713   1.490       .  S
N28          C29   1.363       .  A
C29          N30   1.357       .  A
C29          C65   1.469   1_554  S
C31          N32   1.356       .  A
C31          N36   1.354       .  A
C31         C690   1.481       .  S
N32          C33   1.361       .  A
C33          N34   1.365       .  A
C33          C69   1.477   1_556  S
N34          C35   1.366       .  A
C35          N36   1.357       .  A
C35         C700   1.492       .  S
C37          N38   1.353       .  A
C37          N42   1.355       .  A
C37         C670   1.474       .  S
N38          C39   1.356   1_556  A
C39          N40   1.364       .  A
C39         C680   1.493       .  S
N40          C41   1.364   1_554  A
C41          N42   1.358       .  A
C43          N44   1.353   1_545  A
C43          N48   1.353       .  A
C43         C660   1.476       .  S
N44          C45   1.357       .  A
C45          N46   1.367   1_554  A
N46          C47   1.364   1_565  A
C47          N48   1.355   1_556  A
C47         C650   1.495       .  S
C49          N50   1.362       .  A
C49          N54   1.355       .  A
C49         C640   1.485   1_565  S
N50          C51   1.365       .  A
C51          N52   1.365       .  A
N52          C53   1.360       .  A
C53          N54   1.353       .  A
C53         C630   1.478       .  S
C55          N56   1.362   1_455  A
C55          N60   1.354       .  A
C55         C623   1.493   1_565  S
N56          C57   1.365       .  A
C57          N58   1.362       .  A
N58          C59   1.359   1_655  A
C59          N60   1.354       .  A
C59         C613   1.481       .  S
C61          N62   1.356       .  A
C61          N66   1.355       .  A
C61         C590   1.467       .  S
N62          C63   1.356       .  A
C63          N64   1.362       .  A
C63         C600   1.482       .  S
N64          C65   1.363       .  A
C65          N66   1.356       .  A
C67          N68   1.357       .  A
C67          N72   1.352       .  A
C67         C573   1.484       .  S
N68          C69   1.363       .  A
C69          N70   1.366       .  A
N70          C71   1.365       .  A
C71          N72   1.355       .  A
C71         C583   1.495       .  S
C73          N74   1.358       .  A
C73          N78   1.366       .  A
C73         C560   1.495       .  S
N74          C75   1.353       .  A
C75          N76   1.358       .  A
C75         C550   1.486       .  S
N76          C77   1.362       .  A
C77          N78   1.365       .  A
C77         C180   1.481       .  S
C79          N80   1.357       .  A
C79          N84   1.360       .  A
C79         C540   1.484       .  S
N80          C81   1.356       .  A
C81          N82   1.358       .  A
C81         C533   1.478       .  S
N82          C83   1.360       .  A
C83          N84   1.360       .  A
C83         C256   1.469       .  S
C85          N86   1.353       .  A
C85          N90   1.357       .  A
C85         C520   1.471       .  S
N86          C87   1.356       .  A
C87          N88   1.362       .  A
C87         C510   1.479       .  S
N88          C89   1.366       .  A
C89          N90   1.361       .  A
C89         C153   1.475       .  S
O91         C107   1.275       .  A
O91         Zn97   2.017       .  S
C92         C553   1.484       .  S
C92         O108   1.276       .  A
C92         O105   1.276       .  A
O93         C106   1.278       .  A
O93        Cd100   2.096       .  S
O94         C112   1.276       .  A
O94        Cd103   2.066       .  S
O95         C109   1.277       .  A
O95         Cd99   2.084       .  S
O96         C107   1.277       .  A
O96         Cd99   2.081       .  S
Zn97        O108   2.030       .  S
Zn97        O110   2.027       .  S
Zn97        O102   1.945       .  S
O98         C109   1.274       .  A
O98        Cd103   2.071       .  S
Cd99        O101   2.087       .  S
Cd99        O102   2.013       .  S
Cd100       O104   2.076       .  S
Cd100       O113   2.088       .  S
Cd100       O102   2.012       .  S
O101        C111   1.276       .  A
O102       Cd103   2.004       .  S
Cd103       O105   2.087       .  S
O104        C111   1.277       .  A
C106        C500   1.490       .  S
C106        O110   1.276       .  A
C107        C523   1.484       .  S
C109        C703   1.488       .  S
C111        C743   1.493       .  S
C112        C653   1.490       .  S
C112        O113   1.277       .  A
C114        N115   1.362       .  A
C114        N119   1.358       .  A
C114        C490   1.482       .  S
N115        C116   1.362       .  A
C116        N117   1.358       .  A
C116        C194   1.474       .  S
N117        C118   1.358       .  A
C118        N119   1.357       .  A
C118        C480   1.476       .  S
C120        N121   1.363       .  A
C120        N125   1.358       .  A
C120        C503   1.484       .  S
N121        C122   1.364       .  A
C122        N123   1.358       .  A
C122        C221   1.477       .  S
N123        C124   1.358       .  A
C124        N125   1.357       .  A
C124        C470   1.473       .  S
O126        C142   1.275       .  A
O126       Zn132   2.024       .  S
C127        C493   1.480       .  S
C127        O143   1.275       .  A
C127        O140   1.275       .  A
O128        C141   1.275       .  A
O128       Cd135   2.074       .  S
O129        C147   1.275       .  A
O129       Cd138   2.082       .  S
O130        C144   1.276       .  A
O130       Cd134   2.081       .  S
O131        C142   1.277       .  A
O131       Cd134   2.087       .  S
Zn132       O143   2.027       .  S
Zn132       O145   2.016       .  S
Zn132       O137   1.942       .  S
O133        C144   1.275       .  A
O133       Cd138   2.065       .  S
Cd134       O136   2.075       .  S
Cd134       O137   2.006       .  S
Cd135       O139   2.070       .  S
Cd135       O148   2.064       .  S
Cd135       O137   2.003       .  S
O136        C146   1.277       .  A
O137       Cd138   2.006       .  S
Cd138       O140   2.076       .  S
O139        C146   1.274       .  A
C141        C473   1.482       .  S
C141        O145   1.275       .  A
C142        C460   1.483       .  S
C144        C693   1.480       .  S
C146        C770   1.483       .  S
C147        C643   1.484       .  S
C147        O148   1.275       .  A
C149        N150   1.354       .  A
C149        N154   1.360       .  A
C149        C450   1.492       .  S
N150        C151   1.355       .  A
C151        N152   1.360       .  A
C151        C440   1.486       .  S
N152        C153   1.362       .  A
C153        N154   1.364       .  A
O155        C171   1.274       .  A
O155       Zn161   2.012       .  S
C156        C730   1.478       .  S
C156        O172   1.274       .  A
C156        O169   1.276       .  A
O157        C170   1.277       .  A
O157       Cd164   2.090       .  S
O158        C176   1.276       .  A
O158       Cd167   2.064       .  S
O159        C173   1.275       .  A
O159       Cd163   2.063       .  S
O160        C171   1.274       .  A
O160       Cd163   2.063       .  S
Zn161       O172   2.020       .  S
Zn161       O174   2.010       .  S
Zn161       O166   1.939       .  S
O162        C173   1.275       .  A
O162       Cd167   2.081       .  S
Cd163       O165   2.065       .  S
Cd163       O166   1.999       .  S
Cd164       O168   2.082       .  S
Cd164       O177   2.079       .  S
Cd164       O166   2.006       .  S
O165        C175   1.273       .  A
O166       Cd167   2.004       .  S
Cd167       O169   2.082       .  S
O168        C175   1.277       .  A
C170        C603   1.481       .  S
C170        O174   1.273       .  A
C171        C790   1.475       .  S
C173        C430   1.493       .  S
C175        C563   1.489       .  S
C176        C453   1.483       .  S
C176        O177   1.276       .  A
C178        N179   1.368       .  A
C178        N183   1.357       .  A
C178        C420   1.500       .  S
N179        C180   1.369       .  A
C180        N181   1.363       .  A
N181        C182   1.356       .  A
C182        N183   1.351       .  A
C182        C463   1.478       .  S
C184        N185   1.354       .  A
C184        N189   1.364       .  A
C184        C433   1.496       .  S
N185        C186   1.352       .  A
C186        N187   1.356       .  A
C186        C413   1.481       .  S
N187        C188   1.362       .  A
C188        N189   1.365       .  A
C188        C250   1.474       .  S
C190        N191   1.354       .  A
C190        N195   1.360       .  A
C190        C400   1.482       .  S
N191        C192   1.356       .  A
C192        N193   1.361       .  A
C192        C390   1.487       .  S
N193        C194   1.361       .  A
C194        N195   1.363       .  A
O196        C212   1.272       .  A
O196       Zn202   1.999       .  S
C197        C673   1.472       .  S
C197        O213   1.269       .  A
C197        O210   1.274       .  A
O198        C211   1.275       .  A
O198       Cd205   2.074       .  S
O199        C217   1.276       .  A
O199       Cd208   2.090       .  S
O200        C214   1.276       .  A
O200       Cd204   2.078       .  S
O201        C212   1.277       .  A
O201       Cd204   2.101       .  S
Zn202       O213   1.981       .  S
Zn202       O215   1.991       .  S
Zn202       O207   1.924       .  S
O203        C214   1.276       .  A
O203       Cd208   2.059       .  S
Cd204       O206   2.070       .  S
Cd204       O207   2.010       .  S
Cd205       O209   2.074       .  S
Cd205       O218   2.071       .  S
Cd205       O207   2.001       .  S
O206        C216   1.277       .  A
O207       Cd208   2.007       .  S
Cd208       O210   2.079       .  S
O209        C216   1.276       .  A
C211        C593   1.474       .  S
C211        O215   1.272       .  A
C212        C633   1.487       .  S
C214        C410   1.477       .  S
C216        C393   1.486       .  S
C217        C423   1.496       .  S
C217        O218   1.276       .  A
C219        N220   1.359       .  A
C219        N224   1.356       .  A
C219        C383   1.478       .  S
N220        C221   1.359       .  A
C221        N222   1.364       .  A
N222        C223   1.362       .  A
C223        N224   1.356       .  A
C223        C370   1.485       .  S
O225        C241   1.274       .  A
O225       Zn231   2.013       .  S
C226        C373   1.482       .  S
C226        O242   1.274       .  A
C226        O239   1.275       .  A
O227        C240   1.275       .  A
O227       Cd234   2.073       .  S
O228        C246   1.275       .  A
O228       Cd237   2.061       .  S
O229        C243   1.275       .  A
O229       Cd233   2.059       .  S
O230        C241   1.274       .  A
O230       Cd233   2.067       .  S
Zn231       O242   2.024       .  S
Zn231       O244   2.014       .  S
Zn231       O236   1.937       .  S
O232        C243   1.274       .  A
O232       Cd237   2.074       .  S
Cd233       O235   2.070       .  S
Cd233       O236   1.999       .  S
Cd234       O238   2.078       .  S
Cd234       O247   2.074       .  S
Cd234       O236   2.004       .  S
O235        C245   1.274       .  A
O236       Cd237   2.003       .  S
Cd237       O239   2.084       .  S
O238        C245   1.276       .  A
C240        C483   1.476       .  S
C240        O244   1.274       .  A
C241        C360   1.474       .  S
C243        C783   1.480       .  S
C245        C570   1.483       .  S
C246        C763   1.479       .  S
C246        O247   1.275       .  A
C248        N249   1.356       .  A
C248        N253   1.354       .  A
C248        C350   1.480       .  S
N249        C250   1.360       .  A
C250        N251   1.364       .  A
N251        C252   1.364       .  A
C252        N253   1.358       .  A
C252        C340   1.490       .  S
C254        N255   1.360       .  A
C254        N259   1.357       .  A
C254        C330   1.477       .  S
N255        C256   1.360       .  A
C256        N257   1.358       .  A
N257        C258   1.357       .  A
C258        N259   1.356       .  A
C258        C363   1.475       .  S
O260        C276   1.274       .  A
O260       Zn266   2.016       .  S
C261        C353   1.477       .  S
C261        O277   1.274       .  A
C261        O274   1.275       .  A
O262        C275   1.276       .  A
O262       Cd269   2.084       .  S
O263        C281   1.275       .  A
O263       Cd272   2.074       .  S
O264        C278   1.276       .  A
O264       Cd268   2.084       .  S
O265        C276   1.276       .  A
O265       Cd268   2.084       .  S
Zn266       O277   2.016       .  S
Zn266       O279   2.014       .  S
Zn266       O271   1.941       .  S
O267        C278   1.276       .  A
O267       Cd272   2.076       .  S
Cd268       O270   2.071       .  S
Cd268       O271   2.004       .  S
Cd269       O273   2.078       .  S
Cd269       O282   2.073       .  S
Cd269       O271   2.008       .  S
O270        C280   1.276       .  A
O271       Cd272   2.004       .  S
Cd272       O274   2.076       .  S
O273        C280   1.276       .  A
C275        C333   1.482       .  S
C275        O279   1.274       .  A
C276        C403   1.480       .  S
C278        C753   1.491       .  S
C280        C710   1.483       .  S
C281        C683   1.489       .  S
C281        O282   1.276       .  A
O283        C299   1.273       .  A
O283       Zn289   2.005       .  S
C284        C610   1.476       .  S
C284        O300   1.273       .  A
C284        O297   1.275       .  A
O285        C298   1.277       .  A
O285       Cd292   2.087       .  S
O286        C304   1.276       .  A
O286       Cd295   2.083       .  S
O287        C301   1.273       .  A
O287       Cd291   2.066       .  S
O288        C299   1.273       .  A
O288       Cd291   2.069       .  S
Zn289       O300   2.012       .  S
Zn289       O302   2.013       .  S
Zn289       O294   1.936       .  S
O290        C301   1.275       .  A
O290       Cd295   2.065       .  S
Cd291       O293   2.062       .  S
Cd291       O294   2.004       .  S
Cd292       O296   2.081       .  S
Cd292       O305   2.074       .  S
Cd292       O294   2.002       .  S
O293        C303   1.275       .  A
O294       Cd295   2.001       .  S
Cd295       O297   2.074       .  S
O296        C303   1.276       .  A
C298        C803   1.483       .  S
C298        O302   1.274       .  A
C299        C723   1.472       .  S
C301        C443   1.481       .  S
C303        C543   1.481       .  S
C304        C343   1.487       .  S
C304        O305   1.277       .  A
O306        C322   1.273       .  A
O306       Zn312   2.006       .  S
C307        C513   1.480       .  S
C307        O323   1.272       .  A
C307        O320   1.277       .  A
O308        C321   1.274       .  A
O308       Cd315   2.077       .  S
O309        C327   1.277       .  A
O309       Cd318   2.088       .  S
O310        C324   1.275       .  A
O310       Cd314   2.076       .  S
O311        C322   1.274       .  A
O311       Cd314   2.074       .  S
Zn312       O323   1.995       .  S
Zn312       O325   2.000       .  S
Zn312       O317   1.927       .  S
O313        C324   1.277       .  A
O313       Cd318   2.073       .  S
Cd314       O316   2.053       .  S
Cd314       O317   2.003       .  S
Cd315       O319   2.067       .  S
Cd315       O328   2.065       .  S
Cd315       O317   2.005       .  S
O316        C326   1.274       .  A
O317       Cd318   2.006       .  S
Cd318       O320   2.099       .  S
O319        C326   1.274       .  A
C321        C380   1.473       .  S
C321        O325   1.271       .  A
C322        C530   1.475       .  S
C324        C580   1.490       .  S
C326        C663   1.475       .  S
C327        C620   1.488       .  S
C327        O328   1.276       .  A
C329        C330   1.406       .  A
C329        C334   1.400       .  A
C329        F336   1.358       .  S
C330        C331   1.405       .  A
C331        C332   1.400       .  A
C331        F338   1.358       .  S
C332        C333   1.409       .  A
C332        F337   1.358       .  S
C333        C334   1.407       .  A
C334        F335   1.358       .  S
C339        C340   1.410       .  A
C339        C344   1.405       .  A
C339        F346   1.358       .  S
C340        C341   1.411       .  A
C341        C342   1.396       .  A
C341        F348   1.358       .  S
C342        C343   1.406       .  A
C342        F347   1.358       .  S
C343        C344   1.410       .  A
C344        F345   1.358       .  S
C349        C350   1.408       .  A
C349        C354   1.399       .  A
C349        F356   1.358       .  S
C350        C351   1.407       .  A
C351        C352   1.399       .  A
C351        F358   1.358       .  S
C352        C353   1.406       .  A
C352        F357   1.358       .  S
C353        C354   1.405       .  A
C354        F355   1.358       .  S
C359        C360   1.405       .  A
C359        C364   1.397       .  A
C359        F366   1.358       .  S
C360        C361   1.406       .  A
C361        C362   1.399       .  A
C361        F368   1.358       .  S
C362        C363   1.406       .  A
C362        F367   1.358       .  S
C363        C364   1.406       .  A
C364        F365   1.358       .  S
C369        C370   1.407       .  A
C369        C374   1.401       .  A
C369        F376   1.358       .  S
C370        C371   1.410       .  A
C371        C372   1.402       .  A
C371        F378   1.358       .  S
C372        C373   1.406       .  A
C372        F377   1.358       .  S
C373        C374   1.407       .  A
C374        F375   1.358       .  S
C379        C380   1.406       .  A
C379        C384   1.398       .  A
C379        F386   1.358       .  S
C380        C381   1.404       .  A
C381        C382   1.399       .  A
C381        F388   1.358       .  S
C382        C383   1.409       .  A
C382        F387   1.358       .  S
C383        C384   1.407       .  A
C384        F385   1.358       .  S
C389        C390   1.410       .  A
C389        C394   1.395       .  A
C389        F396   1.358       .  S
C390        C391   1.410       .  A
C391        C392   1.402       .  A
C391        F398   1.358       .  S
C392        C393   1.410       .  A
C392        F397   1.358       .  S
C393        C394   1.407       .  A
C394        F395   1.358       .  S
C399        C400   1.409       .  A
C399        C404   1.399       .  A
C399        F406   1.358       .  S
C400        C401   1.407       .  A
C401        C402   1.402       .  A
C401        F408   1.358       .  S
C402        C403   1.408       .  A
C402        F407   1.358       .  S
C403        C404   1.405       .  A
C404        F405   1.358       .  S
C409        C410   1.408       .  A
C409        C414   1.403       .  A
C409        F416   1.358       .  S
C410        C411   1.404       .  A
C411        C412   1.393       .  A
C411        F418   1.358       .  S
C412        C413   1.408       .  A
C412        F417   1.358       .  S
C413        C414   1.409       .  A
C414        F415   1.358       .  S
C419        C420   1.411       .  A
C419        C424   1.409       .  A
C419        F426   1.357       .  S
C420        C421   1.414       .  A
C421        C422   1.395       .  A
C421        F428   1.358       .  S
C422        C423   1.408       .  A
C422        F427   1.358       .  S
C423        C424   1.413       .  A
C424        F425   1.357       .  S
C429        C430   1.412       .  A
C429        C434   1.405       .  A
C429        F436   1.357       .  S
C430        C431   1.409       .  A
C431        C432   1.394       .  A
C431        F438   1.359       .  S
C432        C433   1.415       .  A
C432        F437   1.358       .  S
C433        C434   1.410       .  A
C434        F435   1.357       .  S
C439        C440   1.411       .  A
C439        C444   1.393       .  A
C439        F446   1.357       .  S
C440        C441   1.409       .  A
C441        C442   1.401       .  A
C441        F448   1.357       .  S
C442        C443   1.409       .  A
C442        F447   1.358       .  S
C443        C444   1.405       .  A
C444        F445   1.359       .  S
C449        C450   1.412       .  A
C449        C454   1.395       .  A
C449        F456   1.356       .  S
C450        C451   1.410       .  A
C451        C452   1.403       .  A
C451        F458   1.357       .  S
C452        C453   1.409       .  A
C452        F457   1.358       .  S
C453        C454   1.405       .  A
C454        F455   1.359       .  S
C459        C460   1.407       .  A
C459        C464   1.400       .  A
C459        F466   1.358       .  S
C460        C461   1.409       .  A
C461        C462   1.402       .  A
C461        F468   1.358       .  S
C462        C463   1.405       .  A
C462        F467   1.358       .  S
C463        C464   1.407       .  A
C464        F465   1.358       .  S
C469        C470   1.404       .  A
C469        C474   1.401       .  A
C469        F476   1.358       .  S
C470        C471   1.404       .  A
C471        C472   1.397       .  A
C471        F478   1.358       .  S
C472        C473   1.409       .  A
C472        F477   1.358       .  S
C473        C474   1.409       .  A
C474        F475   1.358       .  S
C479        C480   1.406       .  A
C479        C484   1.398       .  A
C479        F486   1.358       .  S
C480        C481   1.406       .  A
C481        C482   1.400       .  A
C481        F488   1.358       .  S
C482        C483   1.407       .  A
C482        F487   1.358       .  S
C483        C484   1.406       .  A
C484        F485   1.358       .  S
C489        C490   1.408       .  A
C489        C494   1.400       .  A
C489        F496   1.358       .  S
C490        C491   1.407       .  A
C491        C492   1.401       .  A
C491        F498   1.358       .  S
C492        C493   1.407       .  A
C492        F497   1.358       .  S
C493        C494   1.407       .  A
C494        F495   1.358       .  S
C499        C500   1.409       .  A
C499        C504   1.404       .  A
C499        F506   1.358       .  S
C500        C501   1.410       .  A
C501        C502   1.402       .  A
C501        F508   1.358       .  S
C502        C503   1.405       .  A
C502        F507   1.358       .  S
C503        C504   1.408       .  A
C504        F505   1.358       .  S
C509        C510   1.407       .  A
C509        C514   1.408       .  A
C509        F516   1.357       .  S
C510        C511   1.405       .  A
C511        C512   1.393       .  A
C511        F518   1.359       .  S
C512        C513   1.406       .  A
C512        F517   1.359       .  S
C513        C514   1.409       .  A
C514        F515   1.357       .  S
C519        C520   1.404       .  A
C519        C524   1.399       .  A
C519        F526   1.358       .  S
C520        C521   1.402       .  A
C521        C522   1.400       .  A
C521        F528   1.358       .  S
C522        C523   1.411       .  A
C522        F527   1.358       .  S
C523        C524   1.409       .  A
C524        F525   1.358       .  S
C529        C530   1.405       .  A
C529        C534   1.398       .  A
C529        F536   1.358       .  S
C530        C531   1.407       .  A
C531        C532   1.399       .  A
C531        F538   1.358       .  S
C532        C533   1.406       .  A
C532        F537   1.358       .  S
C533        C534   1.408       .  A
C534        F535   1.358       .  S
C539        C540   1.409       .  A
C539        C544   1.396       .  A
C539        F546   1.358       .  S
C540        C541   1.409       .  A
C541        C542   1.401       .  A
C541        F548   1.358       .  S
C542        C543   1.408       .  A
C542        F547   1.358       .  S
C543        C544   1.406       .  A
C544        F545   1.358       .  S
C549        C550   1.410       .  A
C549        C554   1.403       .  A
C549        F556   1.358       .  S
C550        C551   1.408       .  A
C551        C552   1.401       .  A
C551        F558   1.358       .  S
C552        C553   1.407       .  A
C552        F557   1.357       .  S
C553        C554   1.407       .  A
C554        F555   1.358       .  S
C559        C560   1.410       .  A
C559        C564   1.404       .  A
C559        F566   1.358       .  S
C560        C561   1.414       .  A
C561        C562   1.396       .  A
C561        F568   1.358       .  S
C562        C563   1.405       .  A
C562        F567   1.358       .  S
C563        C564   1.412       .  A
C564        F565   1.358       .  S
C569        C570   1.405       .  A
C569        C574   1.397       .  A
C569        F576   1.358       .  S
C570        C571   1.410       .  A
C571        C572   1.402       .  A
C571        F578   1.358       .  S
C572        C573   1.407       .  A
C572        F577   1.358       .  S
C573        C574   1.409       .  A
C574        F575   1.358       .  S
C579        C580   1.406       .  A
C579        C584   1.393   1_455  A
C579        F586   1.358       .  S
C580        C581   1.412       .  A
C581        C582   1.406       .  A
C581        F588   1.358       .  S
C582        C583   1.410   1_455  A
C582        F587   1.358       .  S
C583        C584   1.414       .  A
C584        F585   1.357       .  S
C589        C590   1.403       .  A
C589        C594   1.395       .  A
C589        F596   1.358       .  S
C590        C591   1.403       .  A
C591        C592   1.397       .  A
C591        F598   1.358       .  S
C592        C593   1.406       .  A
C592        F597   1.358       .  S
C593        C594   1.409       .  A
C594        F595   1.359       .  S
C599        C600   1.409       .  A
C599        C604   1.401   1_655  A
C599        F606   1.358       .  S
C600        C601   1.406   1_655  A
C601        C602   1.401       .  A
C601        F608   1.358       .  S
C602        C603   1.409       .  A
C602        F607   1.358       .  S
C603        C604   1.405       .  A
C604        F605   1.358       .  S
C609        C610   1.403       .  A
C609        C614   1.396       .  A
C609        F616   1.358       .  S
C610        C611   1.408       .  A
C611        C612   1.402       .  A
C611        F618   1.358       .  S
C612        C613   1.407       .  A
C612        F617   1.358   1_455  S
C613        C614   1.409       .  A
C614        F615   1.358       .  S
C619        C620   1.410       .  A
C619        C624   1.404       .  A
C619        F626   1.357       .  S
C620        C621   1.407       .  A
C621        C622   1.396       .  A
C621        F628   1.359       .  S
C622        C623   1.413       .  A
C622        F627   1.358   1_545  S
C623        C624   1.410       .  A
C624        F625   1.357   1_455  S
C629        C630   1.406       .  A
C629        C634   1.408       .  A
C629        F636   1.357       .  S
C630        C631   1.404       .  A
C631        C632   1.395       .  A
C631        F638   1.359       .  S
C632        C633   1.409       .  A
C632        F637   1.359       .  S
C633        C634   1.410       .  A
C634        F635   1.357       .  S
C639        C640   1.408       .  A
C639        C644   1.394       .  A
C639        F646   1.358   1_545  S
C640        C641   1.409       .  A
C641        C642   1.406       .  A
C641        F648   1.358       .  S
C642        C643   1.411       .  A
C642        F647   1.358       .  S
C643        C644   1.406       .  A
C644        F645   1.358       .  S
C649        C650   1.411       .  A
C649        C654   1.408       .  A
C649        F656   1.358   1_545  S
C650        C651   1.413       .  A
C651        C652   1.393       .  A
C651        F658   1.357       .  S
C652        C653   1.405       .  A
C652        F657   1.358       .  S
C653        C654   1.412       .  A
C654        F655   1.358       .  S
C659        C660   1.408       .  A
C659        C664   1.399       .  A
C659        F666   1.358   1_545  S
C660        C661   1.406       .  A
C661        C662   1.391       .  A
C661        F668   1.357       .  S
C662        C663   1.405       .  A
C662        F667   1.358       .  S
C663        C664   1.408       .  A
C664        F665   1.358       .  S
C669        C670   1.408       .  A
C669        C674   1.398       .  A
C669        F676   1.358       .  S
C670        C671   1.405       .  A
C671        C672   1.396       .  A
C671        F678   1.358       .  S
C672        C673   1.407       .  A
C672        F677   1.359       .  S
C673        C674   1.404       .  A
C674        F675   1.358       .  S
C679        C680   1.414       .  A
C679        C684   1.397       .  A
C679        F686   1.358       .  S
C680        C681   1.410       .  A
C681        C682   1.402       .  A
C681        F688   1.357       .  S
C682        C683   1.411       .  A
C682        F687   1.358       .  S
C683        C684   1.407       .  A
C684        F685   1.358       .  S
C689        C690   1.408       .  A
C689        C694   1.402       .  A
C689        F696   1.358       .  S
C690        C691   1.407       .  A
C691        C692   1.396       .  A
C691        F698   1.358       .  S
C692        C693   1.405       .  A
C692        F697   1.358       .  S
C693        C694   1.409       .  A
C694        F695   1.358       .  S
C699        C700   1.413       .  A
C699        C704   1.398   1_655  A
C699        F706   1.358       .  S
C700        C701   1.409   1_655  A
C701        C702   1.404       .  A
C701        F708   1.358       .  S
C702        C703   1.411       .  A
C702        F707   1.358       .  S
C703        C704   1.405       .  A
C704        F705   1.358       .  S
C709        C710   1.409       .  A
C709        C714   1.403       .  A
C709        F716   1.358       .  S
C710        C711   1.405       .  A
C711        C712   1.396       .  A
C711        F718   1.358       .  S
C712        C713   1.411       .  A
C712        F717   1.358       .  S
C713        C714   1.411       .  A
C714        F715   1.358       .  S
C719        C720   1.407   1_455  A
C719        C724   1.397       .  A
C719        F726   1.358       .  S
C720        C721   1.408       .  A
C721        C722   1.398   1_655  A
C721        F728   1.358       .  S
C722        C723   1.405       .  A
C722        F727   1.358       .  S
C723        C724   1.405       .  A
C724        F725   1.358       .  S
C729        C730   1.407       .  A
C729        C734   1.402       .  A
C729        F736   1.358       .  S
C730        C731   1.403       .  A
C731        C732   1.399       .  A
C731        F738   1.358       .  S
C732        C733   1.411       .  A
C732        F737   1.358       .  S
C733        C734   1.408       .  A
C734        F735   1.358   1_455  S
C739        C740   1.411       .  A
C739        C744   1.406       .  A
C739        F746   1.357   1_455  S
C740        C741   1.414       .  A
C741        C742   1.397       .  A
C741        F748   1.358   1_545  S
C742        C743   1.407       .  A
C742        F747   1.358       .  S
C743        C744   1.412       .  A
C744        F745   1.358       .  S
C749        C750   1.413       .  A
C749        C754   1.398       .  A
C749        F756   1.357       .  S
C750        C751   1.410       .  A
C751        C752   1.404       .  A
C751        F758   1.357       .  S
C752        C753   1.411       .  A
C752        F757   1.357       .  S
C753        C754   1.407       .  A
C754        F755   1.358       .  S
C759        C760   1.409       .  A
C759        C764   1.403       .  A
C759        F766   1.358       .  S
C760        C761   1.408       .  A
C761        C762   1.394       .  A
C761        F768   1.357   1_545  S
C762        C763   1.405       .  A
C762        F767   1.358       .  S
C763        C764   1.409       .  A
C764        F765   1.358       .  S
C769        C770   1.411       .  A
C769        C774   1.404       .  A
C769        F776   1.358       .  S
C770        C771   1.405       .  A
C771        C772   1.395       .  A
C771        F778   1.358       .  S
C772        C773   1.410       .  A
C772        F777   1.357       .  S
C773        C774   1.407       .  A
C774        F775   1.358   1_545  S
C779        C780   1.410       .  A
C779        C784   1.391       .  A
C779        F786   1.357       .  S
C780        C781   1.408       .  A
C781        C782   1.404       .  A
C781        F788   1.358   1_545  S
C782        C783   1.410       .  A
C782        F787   1.358       .  S
C783        C784   1.404       .  A
C784        F785   1.358       .  S
C789        C790   1.408       .  A
C789        C794   1.398       .  A
C789        F796   1.358       .  S
C790        C791   1.406       .  A
C791        C792   1.395       .  A
C791        F798   1.358       .  S
C792        C793   1.406       .  A
C792        F797   1.358       .  S
C793        C794   1.405       .  A
C794        F795   1.358       .  S
C799        C800   1.406       .  A
C799        C804   1.400       .  A
C799        F806   1.358       .  S
C800        C801   1.407       .  A
C801        C802   1.401       .  A
C801        F808   1.358       .  S
C802        C803   1.407       .  A
C802        F807   1.358       .  S
C803        C804   1.409       .  A
C804        F805   1.358       .  S
