geometry optimzed in LAMMPS
_audit_creation_date              2020-11-30 
_audit_creation_method            'lammps2cif' 
_symmetry_space_group_name_H-M    'P1' 
_symmetry_Int_Tables_number       1 
_symmetry_cell_setting            triclinic 
loop_ 
_symmetry_equiv_pos_as_xyz 
  x,y,z 
_cell_length_a                    52.49656851 
_cell_length_b                    52.88716763618236 
_cell_length_c                    26.379606633470708 
_cell_angle_alpha                 90.00051878381514 
_cell_angle_beta                  89.98377532195437 
_cell_angle_gamma                 119.88151820209552 
loop_ 
_atom_site_label 
_atom_site_type_symbol 
_atom_site_fract_x 
_atom_site_fract_y 
_atom_site_fract_z 
_atom_site_charge 
Fe1        Fe  0.32265160  0.12661267  0.49569570     1.65800
Fe2        Fe  0.37688026  0.19774372  0.50258687     1.73200
Fe3        Fe  0.30482018  0.17988764  0.50658547     1.54400
O4          O  0.27725422  0.14890495  0.45470255    -0.80900
O5          O  0.37285493  0.21885456  0.56492384    -0.79200
O6          O  0.29748974  0.12204409  0.43278233    -0.83400
O7          O  0.28596466  0.11245928  0.54214171    -0.78200
O8          O  0.32352471  0.20961434  0.44774868    -0.80000
O9          O  0.38667098  0.17331716  0.55177031    -0.82800
C10         C  0.27516552  0.12465920  0.56919256     0.98000
C11         C  0.27830811  0.12974100  0.42718371     1.05400
O12         O  0.33488213  0.16821251  0.50170171    -1.11700
O13         O  0.38649118  0.18083946  0.43947955    -0.74200
O14         O  0.35655744  0.13314435  0.44765058    -0.77700
O15         O  0.28367445  0.15163059  0.56597879    -0.78400
C16         C  0.37812326  0.15477812  0.42671375     0.96900
O17         O  0.34739671  0.12860804  0.55816655    -0.76300
O18         O  0.37160405  0.22548559  0.45451482    -0.81500
C19         C  0.35277467  0.22378353  0.57964264     0.99500
C20         C  0.35012133  0.22673369  0.43518008     1.05400
O21         O  0.32747791  0.21190240  0.55973464    -0.77100
C22         C  0.37295549  0.14815063  0.57196556     1.03700
N23         N  0.03841211  0.08007919  0.99805203    -0.35800
N24         N  0.06111535  0.05967041  0.07771404    -0.56400
N25         N  0.08221483  0.03672372  0.00010196    -0.35800
N26         N  0.05977397  0.05748580  0.92043811    -0.56400
C27         C  0.03736339  0.09517707  0.03855096     0.27800
C28         C  0.03631318  0.09364989  0.95615524     0.27800
C29         C  0.09715278  0.03601541  0.04129340     0.27800
C30         C  0.09668173  0.03525644  0.95884573     0.27800
C31         C  0.04423656  0.06681281  0.10603839     0.36400
C32         C  0.06788664  0.04295523  0.10704800     0.36400
C33         C  0.04193432  0.06310184  0.89176969     0.36400
C34         C  0.06607798  0.03988863  0.89282936     0.36400
C35         C  0.03544392  0.11908287  0.02223097    -0.21100
C36         C  0.03478141  0.11811164  0.97001408    -0.21100
C37         C  0.12188261  0.03497365  0.02611226    -0.21100
C38         C  0.12159305  0.03451224  0.97382008    -0.21100
C39         C  0.04077393  0.05515613  0.15427393    -0.22200
C40         C  0.05581999  0.03995857  0.15491481    -0.22100
C41         C  0.03734606  0.04955297  0.84502646    -0.22200
C42         C  0.05272288  0.03474152  0.84570590    -0.22100
C43         C  0.03379990  0.08531728  0.08914197    -0.17500
C44         C  0.03172427  0.08202180  0.90675615    -0.17500
C45         C  0.08538867  0.03032846  0.90910360    -0.17500
C46         C  0.08662540  0.03244044  0.09149149    -0.17500
H47         H  0.03317278  0.13467586  0.04556099     0.15400
H48         H  0.03193143  0.13280459  0.94518177     0.15400
H49         H  0.13763638  0.03326103  0.05020611     0.15400
H50         H  0.13703931  0.03231491  0.94964422     0.15400
H51         H  0.02929981  0.05793132  0.18594027     0.13700
H52         H  0.05826580  0.02872761  0.18718770     0.13700
H53         H  0.02495701  0.05085824  0.81338466     0.13700
H54         H  0.05450236  0.02232442  0.81470361     0.13700
H55         H  0.03550428  0.05913923  0.99914014     0.27000
H56         H  0.06089297  0.03328925  0.00026388     0.27000
N57         N  0.46282870  0.04235730  0.99965096    -0.35800
N58         N  0.43968132  0.49779689  0.92317751    -0.56400
N59         N  0.41925875  0.45567674  0.00382855    -0.35800
N60         N  0.44197919  0.50032679  0.08028429    -0.56400
C61         C  0.46376908  0.05749087  0.95772669     0.27800
C62         C  0.46463949  0.05882917  0.04014010     0.27800
C63         C  0.40426421  0.43927945  0.96352987     0.27800
C64         C  0.40523904  0.44055855  0.04581542     0.27800
C65         C  0.45666422  0.02083106  0.89338429     0.36400
C66         C  0.43307927  0.47379416  0.89584455     0.36400
C67         C  0.45920966  0.02435824  0.10785725     0.36400
C68         C  0.43558609  0.47717503  0.10998036     0.36400
C69         C  0.46536152  0.08349050  0.97162106    -0.21100
C70         C  0.46589138  0.08433483  0.02384853    -0.21100
C71         C  0.37997147  0.41376104  0.97991146    -0.21100
C72         C  0.38057346  0.41457386  0.03213392    -0.21100
C73         C  0.46026776  0.01148340  0.84624267    -0.22200
C74         C  0.44529419  0.48149679  0.84784663    -0.22100
C75         C  0.46332202  0.01651817  0.15599656    -0.22200
C76         C  0.44826853  0.48645918  0.15735282    -0.22100
C77         C  0.46723844  0.04996132  0.90794888    -0.17500
C78         C  0.46922130  0.05299773  0.09048001    -0.17500
C79         C  0.41661923  0.44805547  0.09532994    -0.17500
C80         C  0.41454017  0.44523335  0.91323904    -0.17500
H81         H  0.46740300  0.10065305  0.94668876     0.15400
H82         H  0.46843340  0.10230238  0.04710932     0.15400
H83         H  0.36435676  0.39584436  0.95668786     0.15400
H84         H  0.36548562  0.39738438  0.05714344     0.15400
H85         H  0.47184774  0.02479570  0.81383546     0.13700
H86         H  0.44307747  0.46708061  0.81696148     0.13700
H87         H  0.47515744  0.03088014  0.18718653     0.13700
H88         H  0.44617332  0.47305555  0.18981467     0.13700
H89         H  0.46592598  0.02438244  0.00037536     0.27000
H90         H  0.44044556  0.47359414  0.00276868     0.27000
N91         N  0.04488320  0.46194948  0.00474582    -0.35800
N92         N  0.00061266  0.43935573  0.92694876    -0.56400
N93         N  0.45726855  0.41852940  0.00628608    -0.35800
N94         N  0.00145935  0.44035655  0.08448679    -0.56400
C95         C  0.06087037  0.46354153  0.96340380     0.27800
C96         C  0.06117881  0.46419092  0.04596738     0.27800
C97         C  0.44104536  0.40384042  0.96552799     0.27800
C98         C  0.44158791  0.40452388  0.04793981     0.27800
C99         C  0.02420522  0.45564174  0.89741760     0.36400
C100        C  0.47663986  0.43215598  0.89836104     0.36400
C101        C  0.02533066  0.45793791  0.11241863     0.36400
C102        C  0.47782024  0.43431208  0.11315184     0.36400
C103        C  0.08731739  0.46605689  0.97849312    -0.21100
C104        C  0.08751418  0.46646477  0.03076487    -0.21100
C105        C  0.41512877  0.37978349  0.98137070    -0.21100
C106        C  0.41546227  0.38022517  0.03360128    -0.21100
C107        C  0.01522180  0.45824568  0.84924555    -0.22200
C108        C  0.48496792  0.44333177  0.84986301    -0.22100
C109        C  0.01689361  0.46254665  0.15974617    -0.22200
C110        C  0.48663123  0.44747746  0.16022012    -0.22100
C111        C  0.05353435  0.46641221  0.91300517    -0.17500
C112        C  0.05443031  0.46832695  0.09603727    -0.17500
C113        C  0.44862058  0.41564995  0.09767275    -0.17500
C114        C  0.44755524  0.41390843  0.91509779    -0.17500
H115        H  0.10517471  0.46877169  0.95433160     0.15400
H116        H  0.10557738  0.46961533  0.05479080     0.15400
H117        H  0.39724942  0.36438486  0.95774996     0.15400
H118        H  0.39786977  0.36526360  0.05818602     0.15400
H119        H  0.02895851  0.46905595  0.81676358     0.13700
H120        H  0.47079410  0.44038433  0.81797947     0.13700
H121        H  0.03100206  0.47495519  0.19088854     0.13700
H122        H  0.47277432  0.44591863  0.19180559     0.13700
H123        H  0.02630274  0.46423313  0.00476548     0.27000
H124        H  0.47544757  0.43947597  0.00571771     0.27000
C125        C  0.01722822  0.12731849  0.18784050     0.03100
C126        C  0.48610928  0.11172949  0.18870043     0.03000
C127        C  0.47094094  0.08712723  0.15743327    -0.17500
C128        C  0.48608133  0.07813420  0.12506793     0.03100
C129        C  0.01713425  0.09369873  0.12440098     0.03000
C130        C  0.03237425  0.11795758  0.15607762    -0.17500
H131        H  0.05619806  0.12966311  0.15588650     0.05100
H132        H  0.44712785  0.07495470  0.15797671     0.05100
C133        C  0.39187915  0.37770763  0.20101030     0.03100
C134        C  0.37659891  0.39349028  0.19953788     0.03000
C135        C  0.38537429  0.41667384  0.16552876    -0.17500
C136        C  0.40881346  0.42421574  0.13232682     0.03100
C137        C  0.42416198  0.40860321  0.13354204     0.03000
C138        C  0.41577959  0.38575824  0.16818669    -0.17500
H139        H  0.42762718  0.37383582  0.16881248     0.05100
H140        H  0.37374484  0.42881719  0.16456666     0.05100
C141        C  0.48311398  0.10323577  0.80003328     0.03100
C142        C  0.01441159  0.11901439  0.79969691     0.03000
C143        C  0.02963902  0.11150821  0.83501120    -0.17500
C144        C  0.01469105  0.08919626  0.87035714     0.03100
C145        C  0.48373636  0.07365863  0.87067803     0.03000
C146        C  0.46832441  0.08055942  0.83534157    -0.17500
H147        H  0.44451519  0.06858697  0.83645144     0.05100
H148        H  0.05344500  0.12290516  0.83489385     0.05100
C149        C  0.39163950  0.37377176  0.81143503     0.03100
C150        C  0.37610377  0.38944297  0.80941223     0.03000
C151        C  0.38394865  0.41253659  0.84369708    -0.17500
C152        C  0.40678026  0.42046698  0.87852552     0.03100
C153        C  0.42273804  0.40552860  0.87920068     0.03000
C154        C  0.41499116  0.38237828  0.84579866    -0.17500
H155        H  0.42696884  0.37059753  0.84743998     0.05100
H156        H  0.37269848  0.42502051  0.84285732     0.05100
C157        C  0.12243191  0.01246172  0.80255474     0.03100
C158        C  0.10726950  0.48139378  0.80504352     0.03000
C159        C  0.08486728  0.46695777  0.84125149    -0.17500
C160        C  0.07768948  0.48248124  0.87578089     0.03100
C161        C  0.09291740  0.01318276  0.87388718     0.03000
C162        C  0.11474979  0.02774779  0.83737026    -0.17500
H163        H  0.12548571  0.05132246  0.83588915     0.05100
H164        H  0.07320917  0.44334848  0.84343427     0.05100
C165        C  0.12735304  0.01794632  0.19577678     0.03100
C166        C  0.11138594  0.48711827  0.19951527     0.03000
C167        C  0.08714754  0.47139064  0.16735454    -0.17500
C168        C  0.07913517  0.48571235  0.13133826     0.03100
C169        C  0.09501037  0.01648715  0.12827029     0.03000
C170        C  0.11885393  0.03225357  0.16067622    -0.17500
H171        H  0.13085902  0.05587460  0.15858972     0.05100
H172        H  0.07475781  0.44779171  0.16952571     0.05100
Fe173      Fe  0.12416017  0.31863010  0.49884321     1.65800
Fe174      Fe  0.19534599  0.37267074  0.50576433     1.73200
Fe175      Fe  0.17862805  0.30234063  0.49962257     1.54400
O176        O  0.15417460  0.28197475  0.56369573    -0.80900
O177        O  0.22397082  0.36842090  0.45683671    -0.79200
O178        O  0.11271073  0.28163466  0.54311565    -0.83400
O179        O  0.11865206  0.29526490  0.43321007    -0.78200
O180        O  0.21555968  0.32614128  0.54463173    -0.80000
O181        O  0.17801295  0.38307933  0.44388928    -0.82800
C182        C  0.12507153  0.27535325  0.42690996     0.98000
C183        C  0.12671270  0.27204813  0.56874762     1.05400
O184        O  0.16602398  0.33136706  0.50158335    -1.11700
O185        O  0.17051728  0.38162408  0.55550598    -0.74200
O186        O  0.12645755  0.34163112  0.56368427    -0.77700
O187        O  0.14415652  0.27357119  0.45379410    -0.78400
C188        C  0.14559836  0.36733651  0.57682069     0.96900
O189        O  0.12989151  0.35331531  0.45399673    -0.76300
O190        O  0.21525965  0.36631484  0.56815053    -0.81500
C191        C  0.22266507  0.34799437  0.42948164     0.99500
C192        C  0.22501881  0.34879664  0.57194577     1.05400
O193        O  0.20332947  0.32134969  0.43550012    -0.77100
C194        C  0.15148474  0.37502443  0.43292536     1.03700
C195        C  0.11302036  0.43829186  0.29260126     0.21100
C196        C  0.10122489  0.41513582  0.32740262    -0.38700
C197        C  0.12139692  0.40843094  0.34976936     0.20100
C198        C  0.15110335  0.42367625  0.33857878     0.22800
C199        C  0.16285501  0.44666006  0.30332167    -0.39300
C200        C  0.14262565  0.45332705  0.28086822     0.21500
N201        N  0.09841830  0.44872040  0.26591615    -0.32500
C202        C  0.11881111  0.47069435  0.23693053    -0.10100
C203        C  0.14661955  0.47390935  0.24490953    -0.28900
N204        N  0.16571378  0.41355876  0.36616300    -0.45500
C205        C  0.14510839  0.39163772  0.39496298    -0.04800
C206        C  0.11720595  0.38772714  0.38550517    -0.22100
H207        H  0.07804513  0.40325555  0.33652225     0.19700
H208        H  0.18604234  0.45857446  0.29424223     0.18500
H209        H  0.16686534  0.48825498  0.22551079     0.14700
H210        H  0.09669407  0.37224494  0.40330372     0.14600
H211        H  0.07588713  0.44125851  0.26715007     0.32800
H212        H  0.18832852  0.42129144  0.36582499     0.35500
C213        C  0.14546395  0.41509340  0.67184446     0.21100
C214        C  0.15771659  0.44013779  0.70231076    -0.38700
C215        C  0.13757525  0.44530679  0.72854024     0.20100
C216        C  0.10753029  0.42712791  0.72417400     0.22800
C217        C  0.09525456  0.40181657  0.69423776    -0.39300
C218        C  0.11543165  0.39643080  0.66844070     0.21500
N219        N  0.15987462  0.40639859  0.64092453    -0.32500
C220        C  0.13896581  0.38193095  0.61782172    -0.10100
C221        C  0.11092214  0.37478943  0.63435797    -0.28900
N222        N  0.09312850  0.43772112  0.75077246    -0.45500
C223        C  0.11411377  0.46289274  0.77209588    -0.04800
C224        C  0.14216420  0.46795575  0.76002980    -0.22100
H225        H  0.18118597  0.45484491  0.70456458     0.19700
H226        H  0.07174960  0.38770898  0.69050178     0.18500
H227        H  0.09008327  0.35713068  0.62120803     0.14700
H228        H  0.16307134  0.48603243  0.77189122     0.14600
H229        H  0.18255348  0.41697194  0.63479849     0.32800
H230        H  0.07035979  0.42867050  0.75342381     0.35500
C231        C  0.32663858  0.37085963  0.70313118     0.21100
C232        C  0.31536328  0.36030115  0.65460682    -0.38700
C233        C  0.28892560  0.35949966  0.64253582     0.20100
C234        C  0.27522902  0.36925908  0.67569395     0.22800
C235        C  0.28622574  0.37927715  0.72453874    -0.39300
C236        C  0.31224159  0.37934180  0.73705513     0.21500
N237        N  0.35143506  0.37388310  0.72369512    -0.32500
C238        C  0.35232009  0.38321429  0.77200767    -0.10100
C239        C  0.32828599  0.38717305  0.78128571    -0.28900
N240        N  0.25088697  0.36708402  0.65462608    -0.45500
C241        C  0.24870052  0.35516904  0.60824778    -0.04800
C242        C  0.27193726  0.35003415  0.59936279    -0.22100
H243        H  0.32625035  0.35304715  0.62835380     0.19700
H244        H  0.27527260  0.38638300  0.75092444     0.18500
H245        H  0.32305085  0.39457201  0.81593279     0.14700
H246        H  0.27603982  0.34101400  0.56554946     0.14600
H247        H  0.36697859  0.37034023  0.70527131     0.32800
H248        H  0.23639141  0.37286431  0.67102421     0.35500
C249        C  0.09629249  0.22115141  0.67126776     0.21100
C250        C  0.09360648  0.21071286  0.72108208    -0.38700
C251        C  0.06832282  0.18382583  0.73123911     0.20100
C252        C  0.04754844  0.16824432  0.69448665     0.22800
C253        C  0.05010652  0.17876643  0.64479468    -0.39300
C254        C  0.07506678  0.20592834  0.63487778     0.21500
N255        N  0.11787514  0.24644997  0.65223753    -0.32500
C256        C  0.10991602  0.24759001  0.60377731    -0.10100
C257        C  0.08340090  0.22274193  0.59157920    -0.28900
N258        N  0.02570474  0.14319857  0.71366867    -0.45500
C259        C  0.03224824  0.14303713  0.76342078    -0.04800
C260        C  0.05883513  0.16800576  0.77550900    -0.22100
H261        H  0.10982625  0.22278051  0.74996074     0.19700
H262        H  0.03364064  0.16689600  0.61616220     0.18500
H263        H  0.07181183  0.21771522  0.55578353     0.14700
H264        H  0.06971004  0.17388331  0.81197698     0.14600
H265        H  0.13639858  0.26231812  0.67135324     0.32800
H266        H  0.50774220  0.12707849  0.69377982     0.35500
C267        C  0.28737061  0.37832508  0.35387670     0.21100
C268        C  0.31714981  0.39702074  0.34287491    -0.38700
C269        C  0.32745268  0.39054531  0.29856105     0.20100
C270        C  0.30926176  0.36767956  0.26697558     0.22800
C271        C  0.27958796  0.34871324  0.27838940    -0.39300
C272        C  0.26946053  0.35473573  0.32340274     0.21500
N273        N  0.27256742  0.37929254  0.39453716    -0.32500
C274        C  0.24526760  0.35580674  0.39055536    -0.10100
C275        C  0.24242197  0.33987933  0.34674207    -0.28900
N276        N  0.32431133  0.36623317  0.22706071    -0.45500
C277        C  0.35245442  0.38750651  0.23451373    -0.04800
C278        C  0.35527893  0.40350858  0.27814235    -0.22100
H279        H  0.33134508  0.41495332  0.36746969     0.19700
H280        H  0.26559463  0.33031713  0.25450113     0.18500
H281        H  0.22330619  0.32003554  0.33403767     0.14700
H282        H  0.37504940  0.42190095  0.29300859     0.14600
H283        H  0.28081443  0.39442327  0.42413376     0.32800
H284        H  0.31601102  0.35165561  0.19671583     0.37100
C285        C  0.08287323  0.23015299  0.32366545     0.21100
C286        C  0.06605987  0.22249324  0.27907784    -0.38700
C287        C  0.05580226  0.19392934  0.26177226     0.20100
C288        C  0.06145117  0.17439840  0.28739575     0.22800
C289        C  0.07859329  0.18217252  0.33146799    -0.39300
C290        C  0.08924393  0.21083001  0.34826547     0.21500
N291        N  0.09486382  0.25578338  0.34836503    -0.32500
C292        C  0.10931728  0.25279333  0.38842225    -0.10100
C293        C  0.10641764  0.22513006  0.38948983    -0.28900
N294        N  0.04855198  0.14838286  0.26409676    -0.45500
C295        C  0.03454298  0.15133346  0.22342407    -0.04800
C296        C  0.03912682  0.17961297  0.21993727    -0.22100
H297        H  0.06123719  0.23759242  0.25944360     0.19700
H298        H  0.08325956  0.16701160  0.35126964     0.18500
H299        H  0.11516952  0.21646559  0.41736628     0.14700
H300        H  0.03154401  0.18858276  0.19062822     0.14600
H301        H  0.09338353  0.27415668  0.33856950     0.32800
H302        H  0.04900140  0.12966865  0.27528277     0.35500
C303        C  0.39008956  0.32641917  0.29164210     0.21100
C304        C  0.40172099  0.31460716  0.32599889    -0.38700
C305        C  0.38114930  0.28870657  0.34989416     0.20100
C306        C  0.35128517  0.27559356  0.34042246     0.22800
C307        C  0.33972280  0.28723393  0.30556048    -0.39300
C308        C  0.36030973  0.31313605  0.28168240     0.21500
N309        N  0.40490423  0.35101842  0.26449006    -0.32500
C310        C  0.38442251  0.35358513  0.23721434    -0.10100
C311        C  0.35638882  0.33001385  0.24639633    -0.28900
N312        N  0.33629960  0.25165327  0.36921574    -0.45500
C313        C  0.35681254  0.24945960  0.39699833    -0.04800
C314        C  0.38503791  0.27210733  0.38582476    -0.22100
H315        H  0.42501922  0.32494425  0.33387004     0.19700
H316        H  0.31640317  0.27707003  0.29801653     0.18500
H317        H  0.33593224  0.32499282  0.22858674     0.14700
H318        H  0.40557925  0.27618940  0.40252879     0.14600
H319        H  0.42758562  0.36534261  0.26473814     0.32800
H320        H  0.31353502  0.23780979  0.37019569     0.35500
C321        C  0.39082908  0.31962968  0.72961725     0.21100
C322        C  0.40299330  0.30720195  0.69780900    -0.38700
C323        C  0.38273232  0.28211446  0.67177178     0.20100
C324        C  0.35267565  0.27056239  0.67658349     0.22800
C325        C  0.34051482  0.28279905  0.70891733    -0.39300
C326        C  0.36079361  0.30768208  0.73546194     0.21500
N327        N  0.40537348  0.34430861  0.75638780    -0.32500
C328        C  0.38450899  0.34827121  0.77924223    -0.10100
C329        C  0.35638371  0.32542093  0.76814744    -0.28900
N330        N  0.33817400  0.24780101  0.64529428    -0.45500
C331        C  0.35913775  0.24472351  0.62074685    -0.04800
C332        C  0.38721616  0.26557757  0.63648269    -0.22100
H333        H  0.42647994  0.31671879  0.69289692     0.19700
H334        H  0.31703708  0.27397810  0.71229680     0.18500
H335        H  0.33555843  0.32266700  0.78093626     0.14700
H336        H  0.40805172  0.26897925  0.62233331     0.14600
H337        H  0.42813392  0.35813176  0.75773197     0.32800
H338        H  0.31543462  0.23553120  0.64010628     0.35500
C339        C  0.40086843  0.11755435  0.66187859     0.21100
C340        C  0.40373151  0.09543861  0.68594766    -0.38700
C341        C  0.42864869  0.10490933  0.71673366     0.20100
C342        C  0.44891322  0.13413241  0.72362177     0.22800
C343        C  0.44610536  0.15622157  0.69948496    -0.39300
C344        C  0.42144952  0.14676193  0.66814752     0.21500
N345        N  0.38013161  0.11428473  0.62839811    -0.32500
C346        C  0.38790903  0.14159114  0.61266338    -0.10100
C347        C  0.41343623  0.16240655  0.63687040    -0.28900
N348        N  0.47082532  0.13742767  0.75417520    -0.45500
C349        C  0.46485655  0.11006506  0.76603113    -0.04800
C350        C  0.43850965  0.08922653  0.74376898    -0.22100
H351        H  0.38808300  0.07255391  0.68024205     0.19700
H352        H  0.46230975  0.17905757  0.70379653     0.18500
H353        H  0.42512302  0.18577069  0.63099577     0.14700
H354        H  0.42816041  0.06573125  0.74651485     0.14600
H355        H  0.36255688  0.09466236  0.61538858     0.32800
H356        H  0.48855235  0.15711725  0.76647367     0.35500
C357        C  0.41012436  0.12567149  0.34194605     0.21100
C358        C  0.41593909  0.10436202  0.32264940    -0.38700
C359        C  0.43721749  0.11365430  0.28439306     0.20100
C360        C  0.45136318  0.14192164  0.26610367     0.22800
C361        C  0.44565719  0.16337724  0.28561361    -0.39300
C362        C  0.42463791  0.15417056  0.32462591     0.21500
N363        N  0.39138665  0.12234326  0.37935988    -0.32500
C364        C  0.39417249  0.14895907  0.38674360    -0.10100
C365        C  0.41472443  0.16945985  0.35323527    -0.28900
N366        N  0.47040186  0.14500337  0.22921912    -0.45500
C367        C  0.46883846  0.11867711  0.22492149    -0.04800
C368        C  0.44811080  0.09852886  0.25836272    -0.22100
H369        H  0.40488367  0.08220055  0.33676799     0.19700
H370        H  0.45701085  0.18563284  0.27193573     0.18500
H371        H  0.42168109  0.19242633  0.35059413     0.14700
H372        H  0.44200115  0.07587356  0.26311932     0.14600
H373        H  0.37803644  0.10323033  0.39958479     0.32800
H374        H  0.48268307  0.16355107  0.20719480     0.35500
C375        C  0.22372883  0.09365488  0.67098062     0.21100
C376        C  0.21194562  0.09241938  0.71922792    -0.38700
C377        C  0.18608223  0.06645344  0.73091785     0.20100
C378        C  0.17238385  0.04378180  0.69672204     0.22800
C379        C  0.18444753  0.04477745  0.64865677    -0.39300
C380        C  0.21089400  0.07043825  0.63749707     0.21500
N381        N  0.24815236  0.11593529  0.65090215    -0.32500
C382        C  0.25136822  0.10661177  0.60479900    -0.10100
C383        C  0.22865050  0.07829155  0.59510131    -0.28900
N384        N  0.14760316  0.02186502  0.71679107    -0.45500
C385        C  0.14614447  0.03007398  0.76508334    -0.04800
C386        C  0.16974326  0.05800031  0.77474114    -0.22100
H387        H  0.22229255  0.11028640  0.74589158     0.19700
H388        H  0.17419418  0.02680404  0.62217715     0.18500
H389        H  0.22526866  0.06549209  0.56116018     0.14700
H390        H  0.17461244  0.07043098  0.80950055     0.14600
H391        H  0.26198060  0.13612354  0.66769721     0.32800
H392        H  0.13250080  0.00283446  0.69812805     0.35500
C393        C  0.23258207  0.08939840  0.32365624     0.21100
C394        C  0.22486896  0.07309389  0.27875182    -0.38700
C395        C  0.19537709  0.06072480  0.26431684     0.20100
C396        C  0.17501730  0.06392110  0.29289108     0.22800
C397        C  0.18283368  0.08067455  0.33729527    -0.39300
C398        C  0.21244807  0.09345987  0.35126314     0.21500
N399        N  0.25889036  0.10233199  0.34661556    -0.32500
C400        C  0.25554284  0.11508302  0.38862769    -0.10100
C401        C  0.22697572  0.11023671  0.39270123    -0.28900
N402        N  0.14816226  0.04889784  0.27222137    -0.45500
C403        C  0.15155850  0.03610027  0.23033898    -0.04800
C404        C  0.18074723  0.04350576  0.22335800    -0.22100
H405        H  0.24057186  0.06995310  0.25703516     0.19700
H406        H  0.16697906  0.08326576  0.35962082     0.18500
H407        H  0.21779455  0.11697019  0.42307795     0.14700
H408        H  0.18990619  0.03689435  0.19278464     0.14600
H409        H  0.27782314  0.10217129  0.33486494     0.32800
H410        H  0.12871325  0.04731130  0.28570554     0.35500
Fe411      Fe  0.32265165  0.62661262  0.49569578     1.65800
Fe412      Fe  0.37688026  0.69774366  0.50258689     1.73200
Fe413      Fe  0.30482016  0.67988754  0.50658557     1.54400
O414        O  0.27725417  0.64890478  0.45470279    -0.80900
O415        O  0.37285494  0.71885451  0.56492383    -0.79200
O416        O  0.29748981  0.62204405  0.43278242    -0.83400
O417        O  0.28596474  0.61245922  0.54214189    -0.78200
O418        O  0.32352465  0.70961425  0.44774875    -0.80000
O419        O  0.38667101  0.67331717  0.55177040    -0.82800
C420        C  0.27516557  0.62465911  0.56919274     0.98000
C421        C  0.27830811  0.62974087  0.42718391     1.05400
O422        O  0.33488213  0.66821243  0.50170179    -1.11700
O423        O  0.38649130  0.68083946  0.43947962    -0.74200
O424        O  0.35655749  0.63314436  0.44765056    -0.77700
O425        O  0.28367441  0.65163049  0.56597889    -0.78400
C426        C  0.37812336  0.65477812  0.42671377     0.96900
O427        O  0.34739678  0.62860801  0.55816660    -0.76300
O428        O  0.37160400  0.72548548  0.45451480    -0.81500
C429        C  0.35277469  0.72378350  0.57964264     0.99500
C430        C  0.35012128  0.72673361  0.43518013     1.05400
O431        O  0.32747792  0.71190236  0.55973464    -0.77100
C432        C  0.37295555  0.64815063  0.57196562     1.03700
N433        N  0.03841213  0.58007919  0.99805202    -0.35800
N434        N  0.06111535  0.55967042  0.07771397    -0.56400
N435        N  0.08221498  0.53672380  0.00010191    -0.35800
N436        N  0.05977396  0.55748573  0.92043808    -0.56400
C437        C  0.03736342  0.59517710  0.03855093     0.27800
C438        C  0.03631328  0.59364992  0.95615520     0.27800
C439        C  0.09715285  0.53601543  0.04129336     0.27800
C440        C  0.09668179  0.53525643  0.95884568     0.27800
C441        C  0.04423656  0.56681283  0.10603831     0.36400
C442        C  0.06788669  0.54295528  0.10704793     0.36400
C443        C  0.04193437  0.56310183  0.89176960     0.36400
C444        C  0.06607797  0.53988855  0.89282936     0.36400
C445        C  0.03544404  0.61908294  0.02223094    -0.21100
C446        C  0.03478156  0.61811170  0.97001405    -0.21100
C447        C  0.12188263  0.53497355  0.02611223    -0.21100
C448        C  0.12159306  0.53451211  0.97382005    -0.21100
C449        C  0.04077396  0.55515617  0.15427384    -0.22200
C450        C  0.05582005  0.53995864  0.15491475    -0.22100
C451        C  0.03734608  0.54955291  0.84502638    -0.22200
C452        C  0.05272287  0.53474141  0.84570591    -0.22100
C453        C  0.03379992  0.58531732  0.08914193    -0.17500
C454        C  0.03172437  0.58202182  0.90675609    -0.17500
C455        C  0.08538869  0.53032841  0.90910356    -0.17500
C456        C  0.08662547  0.53244048  0.09149145    -0.17500
H457        H  0.03317295  0.63467598  0.04556093     0.15400
H458        H  0.03193160  0.63280466  0.94518174     0.15400
H459        H  0.13763637  0.53326088  0.05020606     0.15400
H460        H  0.13703929  0.53231470  0.94964424     0.15400
H461        H  0.02929987  0.55793140  0.18594019     0.13700
H462        H  0.05826590  0.52872774  0.18718768     0.13700
H463        H  0.02495701  0.55085811  0.81338454     0.13700
H464        H  0.05450234  0.52232427  0.81470369     0.13700
H465        H  0.03550426  0.55913921  0.99914014     0.27000
H466        H  0.06089309  0.53328943  0.00026386     0.27000
N467        N  0.46282885  0.54235735  0.99965086    -0.35800
N468        N  0.43968123  0.99779686  0.92317752    -0.56400
N469        N  0.41925885  0.95567676  0.00382856    -0.35800
N470        N  0.44197906  0.00032670  0.08028435    -0.56400
C471        C  0.46376922  0.55749093  0.95772662     0.27800
C472        C  0.46463967  0.55882925  0.04014003     0.27800
C473        C  0.40426428  0.93927943  0.96352987     0.27800
C474        C  0.40523903  0.94055854  0.04581540     0.27800
C475        C  0.45666430  0.52083109  0.89338425     0.36400
C476        C  0.43307922  0.97379415  0.89584453     0.36400
C477        C  0.45920984  0.52435832  0.10785719     0.36400
C478        C  0.43558609  0.97717493  0.10998033     0.36400
C479        C  0.46536167  0.58349057  0.97162099    -0.21100
C480        C  0.46589156  0.58433490  0.02384847    -0.21100
C481        C  0.37997153  0.91376104  0.97991139    -0.21100
C482        C  0.38057347  0.91457388  0.03213384    -0.21100
C483        C  0.46026780  0.51148341  0.84624262    -0.22200
C484        C  0.44529416  0.98149679  0.84784662    -0.22100
C485        C  0.46332213  0.51651826  0.15599655    -0.22200
C486        C  0.44826856  0.98645908  0.15735275    -0.22100
C487        C  0.46723854  0.54996135  0.90794881    -0.17500
C488        C  0.46922148  0.55299781  0.09047995    -0.17500
C489        C  0.41661922  0.94805540  0.09532992    -0.17500
C490        C  0.41454019  0.94523335  0.91323902    -0.17500
H491        H  0.46740317  0.60065311  0.94668867     0.15400
H492        H  0.46843360  0.60230246  0.04710926     0.15400
H493        H  0.36435684  0.89584437  0.95668776     0.15400
H494        H  0.36548560  0.89738440  0.05714334     0.15400
H495        H  0.47184775  0.52479569  0.81383536     0.13700
H496        H  0.44307744  0.96708062  0.81696144     0.13700
H497        H  0.47515759  0.53088024  0.18718651     0.13700
H498        H  0.44617340  0.97305546  0.18981457     0.13700
H499        H  0.46592610  0.52438250  0.00037519     0.27000
H500        H  0.44044557  0.97359407  0.00276876     0.27000
N501        N  0.04488316  0.96194953  0.00474594    -0.35800
N502        N  0.00061270  0.93935579  0.92694878    -0.56400
N503        N  0.45726854  0.91852936  0.00628609    -0.35800
N504        N  0.00145929  0.94035650  0.08448679    -0.56400
C505        C  0.06087034  0.96354162  0.96340391     0.27800
C506        C  0.06117878  0.96419092  0.04596747     0.27800
C507        C  0.44104539  0.90384039  0.96552799     0.27800
C508        C  0.44158791  0.90452384  0.04793980     0.27800
C509        C  0.02420525  0.95564187  0.89741766     0.36400
C510        C  0.47663984  0.93215602  0.89836103     0.36400
C511        C  0.02533059  0.95793784  0.11241866     0.36400
C512        C  0.47782023  0.93431198  0.11315189     0.36400
C513        C  0.08731735  0.96605695  0.97849323    -0.21100
C514        C  0.08751415  0.96646479  0.03076498    -0.21100
C515        C  0.41512879  0.87978344  0.98137068    -0.21100
C516        C  0.41546227  0.88022511  0.03360127    -0.21100
C517        C  0.01522182  0.95824584  0.84924562    -0.22200
C518        C  0.48496791  0.94333185  0.84986303    -0.22100
C519        C  0.01689352  0.96254654  0.15974617    -0.22200
C520        C  0.48663119  0.94747732  0.16022020    -0.22100
C521        C  0.05353436  0.96641233  0.91300527    -0.17500
C522        C  0.05443025  0.96832690  0.09603736    -0.17500
C523        C  0.44862056  0.91564984  0.09767277    -0.17500
C524        C  0.44755524  0.91390841  0.91509778    -0.17500
H525        H  0.10517464  0.96877174  0.95433167     0.15400
H526        H  0.10557735  0.96961530  0.05479089     0.15400
H527        H  0.39724945  0.86438482  0.95774990     0.15400
H528        H  0.39786977  0.86526352  0.05818603     0.15400
H529        H  0.02895852  0.96905617  0.81676368     0.13700
H530        H  0.47079410  0.94038439  0.81797945     0.13700
H531        H  0.03100197  0.97495508  0.19088854     0.13700
H532        H  0.47277427  0.94591843  0.19180571     0.13700
H533        H  0.02630272  0.96423318  0.00476561     0.27000
H534        H  0.47544761  0.93947598  0.00571771     0.27000
C535        C  0.01722825  0.62731857  0.18784039     0.03100
C536        C  0.48610939  0.61172959  0.18870029     0.03000
C537        C  0.47094107  0.58712731  0.15743320    -0.17500
C538        C  0.48608147  0.57813427  0.12506791     0.03100
C539        C  0.01713427  0.59369878  0.12440093     0.03000
C540        C  0.03237428  0.61795763  0.15607756    -0.17500
H541        H  0.05619809  0.62966312  0.15588647     0.05100
H542        H  0.44712799  0.57495479  0.15797664     0.05100
C543        C  0.39187909  0.87770751  0.20101024     0.03100
C544        C  0.37659884  0.89349016  0.19953776     0.03000
C545        C  0.38537429  0.91667378  0.16552873    -0.17500
C546        C  0.40881342  0.92421563  0.13232677     0.03100
C547        C  0.42416194  0.90860307  0.13354200     0.03000
C548        C  0.41577953  0.88575809  0.16818665    -0.17500
H549        H  0.42762711  0.87383567  0.16881245     0.05100
H550        H  0.37374490  0.92881719  0.16456673     0.05100
C551        C  0.48311408  0.60323573  0.80003314     0.03100
C552        C  0.01441165  0.61901435  0.79969686     0.03000
C553        C  0.02963909  0.61150821  0.83501119    -0.17500
C554        C  0.01469113  0.58919629  0.87035714     0.03100
C555        C  0.48373644  0.57365866  0.87067799     0.03000
C556        C  0.46832449  0.58055943  0.83534149    -0.17500
H557        H  0.44451526  0.56858700  0.83645136     0.05100
H558        H  0.05344507  0.62290518  0.83489380     0.05100
C559        C  0.39163950  0.87377172  0.81143508     0.03100
C560        C  0.37610381  0.88944297  0.80941218     0.03000
C561        C  0.38394869  0.91253662  0.84369698    -0.17500
C562        C  0.40678027  0.92046699  0.87852548     0.03100
C563        C  0.42273802  0.90552857  0.87920071     0.03000
C564        C  0.41499111  0.88237822  0.84579877    -0.17500
H565        H  0.42696876  0.87059745  0.84744013     0.05100
H566        H  0.37269855  0.92502057  0.84285711     0.05100
C567        C  0.12243194  0.51246164  0.80255474     0.03100
C568        C  0.10726948  0.98139386  0.80504353     0.03000
C569        C  0.08486727  0.96695784  0.84125155    -0.17500
C570        C  0.07768951  0.98248133  0.87578100     0.03100
C571        C  0.09291737  0.51318268  0.87388708     0.03000
C572        C  0.11474977  0.52774771  0.83737017    -0.17500
H573        H  0.12548568  0.55132237  0.83588903     0.05100
H574        H  0.07320913  0.94334855  0.84343431     0.05100
C575        C  0.12735301  0.51794631  0.19577685     0.03100
C576        C  0.11138597  0.98711829  0.19951522     0.03000
C577        C  0.08714753  0.97139064  0.16735459    -0.17500
C578        C  0.07913512  0.98571233  0.13133835     0.03100
C579        C  0.09501039  0.51648716  0.12827027     0.03000
C580        C  0.11885391  0.53225357  0.16067628    -0.17500
H581        H  0.13085900  0.55587459  0.15858981     0.05100
H582        H  0.07475779  0.94779171  0.16952582     0.05100
Fe583      Fe  0.12416017  0.81863014  0.49884323     1.65800
Fe584      Fe  0.19534598  0.87267078  0.50576429     1.73200
Fe585      Fe  0.17862810  0.80234068  0.49962248     1.54400
O586        O  0.15417467  0.78197478  0.56369567    -0.80900
O587        O  0.22397079  0.86842095  0.45683657    -0.79200
O588        O  0.11271081  0.78163472  0.54311570    -0.83400
O589        O  0.11865203  0.79526495  0.43321007    -0.78200
O590        O  0.21555972  0.82614132  0.54463163    -0.80000
O591        O  0.17801291  0.88307937  0.44388930    -0.82800
C592        C  0.12507154  0.77535334  0.42690986     0.98000
C593        C  0.12671277  0.77204817  0.56874762     1.05400
O594        O  0.16602399  0.83136709  0.50158332    -1.11700
O595        O  0.17051727  0.88162412  0.55550598    -0.74200
O596        O  0.12645753  0.84163118  0.56368428    -0.77700
O597        O  0.14415659  0.77357130  0.45379388    -0.78400
C598        C  0.14559835  0.86733656  0.57682070     0.96900
O599        O  0.12989148  0.85331534  0.45399677    -0.76300
O600        O  0.21525967  0.86631488  0.56815045    -0.81500
C601        C  0.22266508  0.84799443  0.42948151     0.99500
C602        C  0.22501889  0.84879671  0.57194560     1.05400
O603        O  0.20332956  0.82134973  0.43550008    -0.77100
C604        C  0.15148470  0.87502447  0.43292541     1.03700
C605        C  0.11302032  0.93829189  0.29260128     0.21100
C606        C  0.10122483  0.91513582  0.32740261    -0.38700
C607        C  0.12139684  0.90843089  0.34976930     0.20100
C608        C  0.15110328  0.92367622  0.33857878     0.22800
C609        C  0.16285496  0.94666005  0.30332172    -0.39300
C610        C  0.14262561  0.95332706  0.28086827     0.21500
N611        N  0.09841828  0.94872044  0.26591616    -0.32500
C612        C  0.11881110  0.97069438  0.23693055    -0.10100
C613        C  0.14661953  0.97390938  0.24490961    -0.28900
N614        N  0.16571373  0.91355882  0.36616315    -0.45500
C615        C  0.14510833  0.89163775  0.39496308    -0.04800
C616        C  0.11720587  0.88772711  0.38550517    -0.22100
H617        H  0.07804508  0.90325559  0.33652229     0.19700
H618        H  0.18604229  0.95857448  0.29424238     0.18500
H619        H  0.16686533  0.98825504  0.22551090     0.14700
H620        H  0.09669399  0.87224491  0.40330375     0.14600
H621        H  0.07588710  0.94125856  0.26715003     0.32800
H622        H  0.18832849  0.92129158  0.36582531     0.35500
C623        C  0.14546400  0.91509344  0.67184461     0.21100
C624        C  0.15771664  0.94013787  0.70231083    -0.38700
C625        C  0.13757529  0.94530689  0.72854027     0.20100
C626        C  0.10753031  0.92712800  0.72417404     0.22800
C627        C  0.09525460  0.90181663  0.69423790    -0.39300
C628        C  0.11543170  0.89643087  0.66844083     0.21500
N629        N  0.15987466  0.90639858  0.64092473    -0.32500
C630        C  0.13896583  0.88193100  0.61782180    -0.10100
C631        C  0.11092218  0.87478952  0.63435802    -0.28900
N632        N  0.09312852  0.93772126  0.75077239    -0.45500
C633        C  0.11411377  0.96289286  0.77209584    -0.04800
C634        C  0.14216422  0.96795586  0.76002980    -0.22100
H635        H  0.18118602  0.95484500  0.70456466     0.19700
H636        H  0.07174964  0.88770901  0.69050193     0.18500
H637        H  0.09008331  0.85713081  0.62120800     0.14700
H638        H  0.16307136  0.98603251  0.77189127     0.14600
H639        H  0.18255352  0.91697185  0.63479876     0.32800
H640        H  0.07035979  0.92867066  0.75342377     0.35500
C641        C  0.32663868  0.87085968  0.70313107     0.21100
C642        C  0.31536339  0.86030122  0.65460671    -0.38700
C643        C  0.28892570  0.85949971  0.64253566     0.20100
C644        C  0.27522912  0.86925916  0.67569374     0.22800
C645        C  0.28622583  0.87927721  0.72453855    -0.39300
C646        C  0.31224166  0.87934180  0.73705502     0.21500
N647        N  0.35143518  0.87388314  0.72369500    -0.32500
C648        C  0.35232016  0.88321430  0.77200759    -0.10100
C649        C  0.32828602  0.88717299  0.78128563    -0.28900
N650        N  0.25088711  0.86708410  0.65462580    -0.45500
C651        C  0.24870064  0.85516912  0.60824755    -0.04800
C652        C  0.27193736  0.85003418  0.59936261    -0.22100
H653        H  0.32625049  0.85304725  0.62835372     0.19700
H654        H  0.27527268  0.88638307  0.75092421     0.18500
H655        H  0.32305082  0.89457188  0.81593274     0.14700
H656        H  0.27603993  0.84101401  0.56554932     0.14600
H657        H  0.36697869  0.87034029  0.70527124     0.32800
H658        H  0.23639148  0.87286442  0.67102391     0.35500
C659        C  0.09629250  0.72115139  0.67126776     0.21100
C660        C  0.09360649  0.71071280  0.72108205    -0.38700
C661        C  0.06832288  0.68382574  0.73123905     0.20100
C662        C  0.04754851  0.66824422  0.69448656     0.22800
C663        C  0.05010660  0.67876635  0.64479457    -0.39300
C664        C  0.07506681  0.70592831  0.63487772     0.21500
N665        N  0.11787512  0.74644994  0.65223754    -0.32500
C666        C  0.10991608  0.74759002  0.60377731    -0.10100
C667        C  0.08340095  0.72274195  0.59157916    -0.28900
N668        N  0.02570480  0.64319849  0.71366861    -0.45500
C669        C  0.03224829  0.64303708  0.76342075    -0.04800
C670        C  0.05883519  0.66800568  0.77550896    -0.22100
H671        H  0.10982625  0.72278045  0.74996073     0.19700
H672        H  0.03364074  0.66689590  0.61616206     0.18500
H673        H  0.07181191  0.71771530  0.55578347     0.14700
H674        H  0.06971013  0.67388322  0.81197692     0.14600
H675        H  0.13639860  0.76231812  0.67135336     0.32800
H676        H  0.50774233  0.62707841  0.69377976     0.35500
C677        C  0.28737057  0.87832513  0.35387641     0.21100
C678        C  0.31714978  0.89702075  0.34287460    -0.38700
C679        C  0.32745265  0.89054525  0.29856084     0.20100
C680        C  0.30926169  0.86767952  0.26697533     0.22800
C681        C  0.27958786  0.84871329  0.27838910    -0.39300
C682        C  0.26946045  0.85473579  0.32340246     0.21500
N683        N  0.27256742  0.87929260  0.39453693    -0.32500
C684        C  0.24526758  0.85580681  0.39055516    -0.10100
C685        C  0.24242192  0.83987938  0.34674187    -0.28900
N686        N  0.32431126  0.86623313  0.22706049    -0.45500
C687        C  0.35245435  0.88750643  0.23451353    -0.04800
C688        C  0.35527890  0.90350852  0.27814216    -0.22100
H689        H  0.33134509  0.91495335  0.36746930     0.19700
H690        H  0.26559449  0.83031721  0.25450078     0.18500
H691        H  0.22330614  0.82003557  0.33403751     0.14700
H692        H  0.37504938  0.92190092  0.29300834     0.14600
H693        H  0.28081448  0.89442331  0.42413353     0.32800
H694        H  0.31601091  0.85165557  0.19671545     0.37100
C695        C  0.08287312  0.73015303  0.32366548     0.21100
C696        C  0.06605980  0.72249329  0.27907781    -0.38700
C697        C  0.05580225  0.69392940  0.26177220     0.20100
C698        C  0.06145122  0.67439849  0.28739564     0.22800
C699        C  0.07859336  0.68217263  0.33146785    -0.39300
C700        C  0.08924392  0.71083009  0.34826540     0.21500
N701        N  0.09486364  0.75578341  0.34836513    -0.32500
C702        C  0.10931721  0.75279340  0.38842222    -0.10100
C703        C  0.10641768  0.72513017  0.38948971    -0.28900
N704        N  0.04855209  0.64838295  0.26409662    -0.45500
C705        C  0.03454304  0.65133353  0.22342396    -0.04800
C706        C  0.03912681  0.67961301  0.21993721    -0.22100
H707        H  0.06123706  0.73759244  0.25944361     0.19700
H708        H  0.08325973  0.66701175  0.35126939     0.18500
H709        H  0.11516970  0.71646578  0.41736602     0.14700
H710        H  0.03154393  0.68858275  0.19062819     0.14600
H711        H  0.09338328  0.77415665  0.33856968     0.32800
H712        H  0.04900159  0.62966879  0.27528259     0.35500
C713        C  0.39008949  0.82641904  0.29164202     0.21100
C714        C  0.40172093  0.81460693  0.32599858    -0.38700
C715        C  0.38114922  0.78870640  0.34989395     0.20100
C716        C  0.35128507  0.77559352  0.34042258     0.22800
C717        C  0.33972271  0.78723400  0.30556079    -0.39300
C718        C  0.36030965  0.81313605  0.28168258     0.21500
N719        N  0.40490422  0.85101827  0.26448990    -0.32500
C720        C  0.38442245  0.85358505  0.23721436    -0.10100
C721        C  0.35638874  0.83001387  0.24639656    -0.28900
N722        N  0.33629953  0.75165331  0.36921600    -0.45500
C723        C  0.35681247  0.74945952  0.39699835    -0.04800
C724        C  0.38503786  0.77210714  0.38582450    -0.22100
H725        H  0.42501916  0.82494392  0.33386954     0.19700
H726        H  0.31640307  0.77707024  0.29801705     0.18500
H727        H  0.33593215  0.82499291  0.22858709     0.14700
H728        H  0.40557923  0.77618916  0.40252834     0.14600
H729        H  0.42758556  0.86534231  0.26473779     0.32800
H730        H  0.31353487  0.73780990  0.37019624     0.35500
C731        C  0.39082914  0.81962969  0.72961720     0.21100
C732        C  0.40299335  0.80720192  0.69780898    -0.38700
C733        C  0.38273234  0.78211441  0.67177186     0.20100
C734        C  0.35267566  0.77056233  0.67658358     0.22800
C735        C  0.34051484  0.78279903  0.70891739    -0.39300
C736        C  0.36079366  0.80768209  0.73546190     0.21500
N737        N  0.40537355  0.84430861  0.75638781    -0.32500
C738        C  0.38450903  0.84827119  0.77924224    -0.10100
C739        C  0.35638376  0.82542092  0.76814742    -0.28900
N740        N  0.33817405  0.74780097  0.64529440    -0.45500
C741        C  0.35913774  0.74472345  0.62074691    -0.04800
C742        C  0.38721616  0.76557750  0.63648277    -0.22100
H743        H  0.42647999  0.81671873  0.69289685     0.19700
H744        H  0.31703710  0.77397807  0.71229693     0.18500
H745        H  0.33555848  0.82266697  0.78093625     0.14700
H746        H  0.40805169  0.76897916  0.62233335     0.14600
H747        H  0.42813398  0.85813175  0.75773201     0.32800
H748        H  0.31543457  0.73553110  0.64010639     0.35500
C749        C  0.40086854  0.61755432  0.66187841     0.21100
C750        C  0.40373169  0.59543860  0.68594738    -0.38700
C751        C  0.42864885  0.60490932  0.71673340     0.20100
C752        C  0.44891335  0.63413240  0.72362160     0.22800
C753        C  0.44610545  0.65622153  0.69948480    -0.39300
C754        C  0.42144960  0.64676189  0.66814741     0.21500
N755        N  0.38013171  0.61428471  0.62839795    -0.32500
C756        C  0.38790909  0.64159111  0.61266335    -0.10100
C757        C  0.41343628  0.66240651  0.63687038    -0.28900
N758        N  0.47082541  0.63742766  0.75417511    -0.45500
C759        C  0.46485667  0.61006505  0.76603097    -0.04800
C760        C  0.43850980  0.58922652  0.74376873    -0.22100
H761        H  0.38808319  0.57255390  0.68024174     0.19700
H762        H  0.46230984  0.67905753  0.70379628     0.18500
H763        H  0.42512308  0.68577064  0.63099575     0.14700
H764        H  0.42816056  0.56573123  0.74651453     0.14600
H765        H  0.36255697  0.59466234  0.61538835     0.32800
H766        H  0.48855243  0.65711725  0.76647364     0.35500
C767        C  0.41012448  0.62567154  0.34194600     0.21100
C768        C  0.41593926  0.60436209  0.32264936    -0.38700
C769        C  0.43721764  0.61365438  0.28439300     0.20100
C770        C  0.45136325  0.64192171  0.26610355     0.22800
C771        C  0.44565723  0.66337729  0.28561350    -0.39300
C772        C  0.42463798  0.65417060  0.32462584     0.21500
N773        N  0.39138679  0.62234329  0.37935987    -0.32500
C774        C  0.39417259  0.64895909  0.38674361    -0.10100
C775        C  0.41472448  0.66945987  0.35323520    -0.28900
N776        N  0.47040190  0.64500344  0.22921892    -0.45500
C777        C  0.46883854  0.61867720  0.22492129    -0.04800
C778        C  0.44811097  0.59852896  0.25836263    -0.22100
H779        H  0.40488389  0.58220062  0.33676797     0.19700
H780        H  0.45701084  0.68563289  0.27193558     0.18500
H781        H  0.42168104  0.69242632  0.35059397     0.14700
H782        H  0.44200139  0.57587369  0.26311930     0.14600
H783        H  0.37803664  0.60323036  0.39958480     0.32800
H784        H  0.48268306  0.66355115  0.20719462     0.35500
C785        C  0.22372882  0.59365476  0.67098070     0.21100
C786        C  0.21194562  0.59241927  0.71922798    -0.38700
C787        C  0.18608228  0.56645333  0.73091795     0.20100
C788        C  0.17238388  0.54378172  0.69672209     0.22800
C789        C  0.18444752  0.54477737  0.64865677    -0.39300
C790        C  0.21089401  0.57043814  0.63749714     0.21500
N791        N  0.24815237  0.61593517  0.65090232    -0.32500
C792        C  0.25136829  0.60661165  0.60479920    -0.10100
C793        C  0.22865057  0.57829146  0.59510146    -0.28900
N794        N  0.14760319  0.52186497  0.71679112    -0.45500
C795        C  0.14614454  0.53007391  0.76508342    -0.04800
C796        C  0.16974334  0.55800023  0.77474129    -0.22100
H797        H  0.22229253  0.61028628  0.74589166     0.19700
H798        H  0.17419414  0.52680399  0.62217710     0.18500
H799        H  0.22526874  0.56549204  0.56116029     0.14700
H800        H  0.17461254  0.57043090  0.80950072     0.14600
H801        H  0.26198057  0.63612339  0.66769743     0.32800
H802        H  0.13250081  0.50283441  0.69812805     0.35500
C803        C  0.23258209  0.58939831  0.32365635     0.21100
C804        C  0.22486897  0.57309380  0.27875191    -0.38700
C805        C  0.19537710  0.56072471  0.26431691     0.20100
C806        C  0.17501733  0.56392106  0.29289113     0.22800
C807        C  0.18283370  0.58067444  0.33729539    -0.39300
C808        C  0.21244808  0.59345978  0.35126325     0.21500
N809        N  0.25889031  0.60233184  0.34661580    -0.32500
C810        C  0.25554283  0.61508287  0.38862792    -0.10100
C811        C  0.22697572  0.61023661  0.39270138    -0.28900
N812        N  0.14816232  0.54889787  0.27222136    -0.45500
C813        C  0.15155850  0.53610026  0.23033901    -0.04800
C814        C  0.18074721  0.54350566  0.22335809    -0.22100
H815        H  0.24057185  0.56995295  0.25703528     0.19700
H816        H  0.16697908  0.58326561  0.35962101     0.18500
H817        H  0.21779456  0.61697014  0.42307804     0.14700
H818        H  0.18990612  0.53689419  0.19278477     0.14600
H819        H  0.27782314  0.60217109  0.33486521     0.32800
H820        H  0.12871326  0.54731136  0.28570559     0.35500
Fe821      Fe  0.82265164  0.12661270  0.49569569     1.65800
Fe822      Fe  0.87688028  0.19774373  0.50258689     1.73200
Fe823      Fe  0.80482018  0.17988766  0.50658556     1.54400
O824        O  0.77725427  0.14890498  0.45470257    -0.80900
O825        O  0.87285496  0.21885458  0.56492385    -0.79200
O826        O  0.79748988  0.12204420  0.43278227    -0.83400
O827        O  0.78596468  0.11245929  0.54214171    -0.78200
O828        O  0.82352471  0.20961440  0.44774886    -0.80000
O829        O  0.88667097  0.17331717  0.55177037    -0.82800
C830        C  0.77516553  0.12465919  0.56919261     0.98000
C831        C  0.77830821  0.12974106  0.42718370     1.05400
O832        O  0.83488215  0.16821254  0.50170175    -1.11700
O833        O  0.88649127  0.18083946  0.43947960    -0.74200
O834        O  0.85655746  0.13314436  0.44765054    -0.77700
O835        O  0.78367440  0.15163057  0.56597879    -0.78400
C836        C  0.87812332  0.15477812  0.42671375     0.96900
O837        O  0.84739674  0.12860801  0.55816653    -0.76300
O838        O  0.87160406  0.22548560  0.45451485    -0.81500
C839        C  0.85277469  0.22378351  0.57964278     0.99500
C840        C  0.85012133  0.22673373  0.43518021     1.05400
O841        O  0.82747790  0.21190236  0.55973484    -0.77100
C842        C  0.87295551  0.14815063  0.57196556     1.03700
N843        N  0.53841207  0.08007920  0.99805204    -0.35800
N844        N  0.56111529  0.05967040  0.07771402    -0.56400
N845        N  0.58221487  0.03672377  0.00010197    -0.35800
N846        N  0.55977396  0.05748581  0.92043816    -0.56400
C847        C  0.53736332  0.09517707  0.03855097     0.27800
C848        C  0.53631325  0.09364995  0.95615523     0.27800
C849        C  0.59715287  0.03601553  0.04129341     0.27800
C850        C  0.59668174  0.03525644  0.95884573     0.27800
C851        C  0.54423650  0.06681280  0.10603838     0.36400
C852        C  0.56788665  0.04295526  0.10704797     0.36400
C853        C  0.54193434  0.06310189  0.89176971     0.36400
C854        C  0.56607796  0.03988864  0.89282942     0.36400
C855        C  0.53544389  0.11908289  0.02223098    -0.21100
C856        C  0.53478151  0.11811173  0.97001408    -0.21100
C857        C  0.62188267  0.03497373  0.02611224    -0.21100
C858        C  0.62159306  0.03451224  0.97382006    -0.21100
C859        C  0.54077389  0.05515611  0.15427393    -0.22200
C860        C  0.55581999  0.03995859  0.15491478    -0.22100
C861        C  0.53734607  0.04955301  0.84502652    -0.22200
C862        C  0.55272288  0.03474154  0.84570595    -0.22100
C863        C  0.53379984  0.08531727  0.08914197    -0.17500
C864        C  0.53172431  0.08202185  0.90675615    -0.17500
C865        C  0.58538864  0.03032846  0.90910361    -0.17500
C866        C  0.58662550  0.03244056  0.09149150    -0.17500
H867        H  0.53317268  0.13467584  0.04556097     0.15400
H868        H  0.53193160  0.13280470  0.94518175     0.15400
H869        H  0.63763646  0.03326112  0.05020605     0.15400
H870        H  0.63703932  0.03231490  0.94964424     0.15400
H871        H  0.52929977  0.05793129  0.18594030     0.13700
H872        H  0.55826586  0.02872768  0.18718768     0.13700
H873        H  0.52495699  0.05085823  0.81338473     0.13700
H874        H  0.55450235  0.02232446  0.81470363     0.13700
H875        H  0.53550418  0.05913921  0.99914014     0.27000
H876        H  0.56089303  0.03328926  0.00026392     0.27000
N877        N  0.96282869  0.04235729  0.99965097    -0.35800
N878        N  0.93968124  0.49779688  0.92317749    -0.56400
N879        N  0.91925881  0.45567674  0.00382856    -0.35800
N880        N  0.94197911  0.50032678  0.08028426    -0.56400
C881        C  0.96376913  0.05749087  0.95772672     0.27800
C882        C  0.96463956  0.05882918  0.04014012     0.27800
C883        C  0.90426427  0.43927941  0.96352988     0.27800
C884        C  0.90523902  0.44055856  0.04581542     0.27800
C885        C  0.95666421  0.02083108  0.89338426     0.36400
C886        C  0.93307921  0.47379415  0.89584453     0.36400
C887        C  0.95920977  0.02435824  0.10785722     0.36400
C888        C  0.93558605  0.47717503  0.10998033     0.36400
C889        C  0.96536162  0.08349052  0.97162111    -0.21100
C890        C  0.96589151  0.08433487  0.02384858    -0.21100
C891        C  0.87997152  0.41376102  0.97991144    -0.21100
C892        C  0.88057345  0.41457388  0.03213389    -0.21100
C893        C  0.96026771  0.01148341  0.84624260    -0.22200
C894        C  0.94529414  0.48149679  0.84784662    -0.22100
C895        C  0.96332207  0.01651815  0.15599655    -0.22200
C896        C  0.94826855  0.48645920  0.15735274    -0.22100
C897        C  0.96723846  0.04996133  0.90794888    -0.17500
C898        C  0.96922140  0.05299773  0.09048001    -0.17500
C899        C  0.91661919  0.44805548  0.09532993    -0.17500
C900        C  0.91454018  0.44523334  0.91323904    -0.17500
H901        H  0.96740315  0.10065307  0.94668878     0.15400
H902        H  0.96843359  0.10230245  0.04710938     0.15400
H903        H  0.86435682  0.39584434  0.95668781     0.15400
H904        H  0.86548557  0.39738441  0.05714338     0.15400
H905        H  0.97184773  0.02479571  0.81383540     0.13700
H906        H  0.94307742  0.46708061  0.81696145     0.13700
H907        H  0.97515748  0.03088012  0.18718654     0.13700
H908        H  0.94617341  0.47305559  0.18981457     0.13700
H909        H  0.96592592  0.02438237  0.00037536     0.27000
H910        H  0.94044557  0.47359410  0.00276873     0.27000
N911        N  0.54488319  0.46194949  0.00474591    -0.35800
N912        N  0.50061271  0.43935573  0.92694879    -0.56400
N913        N  0.95726850  0.41852932  0.00628608    -0.35800
N914        N  0.50145937  0.44035653  0.08448680    -0.56400
C915        C  0.56087039  0.46354161  0.96340389     0.27800
C916        C  0.56117881  0.46419092  0.04596744     0.27800
C917        C  0.94104536  0.40384037  0.96552799     0.27800
C918        C  0.94158790  0.40452386  0.04793981     0.27800
C919        C  0.52420527  0.45564177  0.89741764     0.36400
C920        C  0.97663980  0.43215600  0.89836104     0.36400
C921        C  0.52533067  0.45793791  0.11241865     0.36400
C922        C  0.97782022  0.43431208  0.11315186     0.36400
C923        C  0.58731743  0.46605701  0.97849321    -0.21100
C924        C  0.58751420  0.46646482  0.03076495    -0.21100
C925        C  0.91512877  0.37978341  0.98137069    -0.21100
C926        C  0.91546226  0.38022511  0.03360129    -0.21100
C927        C  0.51522186  0.45824568  0.84924556    -0.22200
C928        C  0.98496786  0.44333179  0.84986301    -0.22100
C929        C  0.51689361  0.46254664  0.15974618    -0.22200
C930        C  0.98663121  0.44747745  0.16022017    -0.22100
C931        C  0.55353439  0.46641230  0.91300526    -0.17500
C932        C  0.55443031  0.46832696  0.09603733    -0.17500
C933        C  0.94862055  0.41564994  0.09767275    -0.17500
C934        C  0.94755520  0.41390841  0.91509779    -0.17500
H935        H  0.60517477  0.46877189  0.95433168     0.15400
H936        H  0.60557739  0.46961534  0.05479089     0.15400
H937        H  0.89724941  0.36438481  0.95774993     0.15400
H938        H  0.89786974  0.36526356  0.05818604     0.15400
H939        H  0.52895856  0.46905595  0.81676357     0.13700
H940        H  0.97079403  0.44038434  0.81797948     0.13700
H941        H  0.53100203  0.47495514  0.19088862     0.13700
H942        H  0.97277429  0.44591859  0.19180565     0.13700
H943        H  0.52630272  0.46423314  0.00476559     0.27000
H944        H  0.97544760  0.43947602  0.00571770     0.27000
C945        C  0.51722817  0.12731845  0.18784055     0.03100
C946        C  0.98610934  0.11172950  0.18870042     0.03000
C947        C  0.97094100  0.08712722  0.15743329    -0.17500
C948        C  0.98608140  0.07813420  0.12506795     0.03100
C949        C  0.51713418  0.09369872  0.12440097     0.03000
C950        C  0.53237419  0.11795755  0.15607763    -0.17500
H951        H  0.55619800  0.12966307  0.15588648     0.05100
H952        H  0.94712792  0.07495468  0.15797672     0.05100
C953        C  0.89187912  0.37770764  0.20101033     0.03100
C954        C  0.87659890  0.39349032  0.19953790     0.03000
C955        C  0.88537433  0.41667393  0.16552884    -0.17500
C956        C  0.90881344  0.42421576  0.13232683     0.03100
C957        C  0.92416195  0.40860320  0.13354202     0.03000
C958        C  0.91577955  0.38575823  0.16818670    -0.17500
H959        H  0.92762713  0.37383581  0.16881246     0.05100
H960        H  0.87374492  0.42881732  0.16456681     0.05100
C961        C  0.98311396  0.10323574  0.80003323     0.03100
C962        C  0.51441160  0.11901444  0.79969698     0.03000
C963        C  0.52963903  0.11150823  0.83501119    -0.17500
C964        C  0.51469107  0.08919629  0.87035716     0.03100
C965        C  0.98373635  0.07365863  0.87067803     0.03000
C966        C  0.96832439  0.08055942  0.83534159    -0.17500
H967        H  0.94451517  0.06858700  0.83645154     0.05100
H968        H  0.55344501  0.12290516  0.83489372     0.05100
C969        C  0.89163940  0.37377167  0.81143519     0.03100
C970        C  0.87610372  0.38944292  0.80941231     0.03000
C971        C  0.88394863  0.41253658  0.84369709    -0.17500
C972        C  0.90678024  0.42046698  0.87852551     0.03100
C973        C  0.92273798  0.40552856  0.87920073     0.03000
C974        C  0.91499103  0.38237819  0.84579884    -0.17500
H975        H  0.92696871  0.37059744  0.84744016     0.05100
H976        H  0.87269849  0.42502053  0.84285725     0.05100
C977        C  0.62243193  0.01246174  0.80255476     0.03100
C978        C  0.60726951  0.48139383  0.80504360     0.03000
C979        C  0.58486728  0.46695784  0.84125158    -0.17500
C980        C  0.57768952  0.48248133  0.87578099     0.03100
C981        C  0.59291737  0.01318278  0.87388714     0.03000
C982        C  0.61474977  0.02774781  0.83737022    -0.17500
H983        H  0.62548569  0.05132247  0.83588908     0.05100
H984        H  0.57320911  0.44334855  0.84343437     0.05100
C985        C  0.62735307  0.01794638  0.19577686     0.03100
C986        C  0.61138595  0.48711826  0.19951529     0.03000
C987        C  0.58714752  0.47139064  0.16735460    -0.17500
C988        C  0.57913515  0.48571235  0.13133833     0.03100
C989        C  0.59501046  0.01648724  0.12827027     0.03000
C990        C  0.61885401  0.03225365  0.16067622    -0.17500
H991        H  0.63085913  0.05587467  0.15858971     0.05100
H992        H  0.57475776  0.44779171  0.16952581     0.05100
Fe993      Fe  0.62416013  0.31863009  0.49884322     1.65800
Fe994      Fe  0.69534594  0.37267073  0.50576431     1.73200
Fe995      Fe  0.67862808  0.30234064  0.49962254     1.54400
O996        O  0.65417463  0.28197474  0.56369568    -0.80900
O997        O  0.72397076  0.36842089  0.45683663    -0.79200
O998        O  0.61271076  0.28163468  0.54311569    -0.83400
O999        O  0.61865204  0.29526486  0.43321012    -0.78200
O1000       O  0.71555968  0.32614128  0.54463171    -0.80000
O1001       O  0.67801290  0.38307932  0.44388928    -0.82800
C1002       C  0.62507157  0.27535326  0.42690993     0.98000
C1003       C  0.62671273  0.27204813  0.56874761     1.05400
O1004       O  0.66602395  0.33136704  0.50158333    -1.11700
O1005       O  0.67051721  0.38162406  0.55550595    -0.74200
O1006       O  0.62645747  0.34163112  0.56368426    -0.77700
O1007       O  0.64415659  0.27357121  0.45379403    -0.78400
C1008       C  0.64559829  0.36733651  0.57682067     0.96900
O1009       O  0.62989147  0.35331530  0.45399674    -0.76300
O1010       O  0.71525961  0.36631483  0.56815050    -0.81500
C1011       C  0.72266507  0.34799438  0.42948159     0.99500
C1012       C  0.72501883  0.34879666  0.57194570     1.05400
O1013       O  0.70332954  0.32134968  0.43550013    -0.77100
C1014       C  0.65148469  0.37502442  0.43292538     1.03700
C1015       C  0.61302034  0.43829191  0.29260143     0.21100
C1016       C  0.60122487  0.41513595  0.32740297    -0.38700
C1017       C  0.62139688  0.40843101  0.34976962     0.20100
C1018       C  0.65110329  0.42367620  0.33857881     0.22800
C1019       C  0.66285494  0.44665997  0.30332164    -0.39300
C1020       C  0.64262560  0.45332701  0.28086825     0.21500
N1021       N  0.59841828  0.44872047  0.26591633    -0.32500
C1022       C  0.61881109  0.47069434  0.23693058    -0.10100
C1023       C  0.64661951  0.47390930  0.24490953    -0.28900
N1024       N  0.66571370  0.41355869  0.36616296    -0.45500
C1025       C  0.64510834  0.39163773  0.39496309    -0.04800
C1026       C  0.61720591  0.38772725  0.38550551    -0.22100
H1027       H  0.57804514  0.40325581  0.33652282     0.19700
H1028       H  0.68604226  0.45857433  0.29424213     0.18500
H1029       H  0.66686529  0.48825489  0.22551073     0.14700
H1030       H  0.59669405  0.37224513  0.40330425     0.14600
H1031       H  0.57588716  0.44125869  0.26715039     0.32800
H1032       H  0.68832847  0.42129134  0.36582484     0.35500
C1033       C  0.64546398  0.41509341  0.67184454     0.21100
C1034       C  0.65771664  0.44013783  0.70231080    -0.38700
C1035       C  0.63757530  0.44530685  0.72854030     0.20100
C1036       C  0.60753033  0.42712797  0.72417407     0.22800
C1037       C  0.59525459  0.40181657  0.69423796    -0.39300
C1038       C  0.61543168  0.39643082  0.66844084     0.21500
N1039       N  0.65987463  0.40639857  0.64092456    -0.32500
C1040       C  0.63896578  0.38193096  0.61782172    -0.10100
C1041       C  0.61092213  0.37478946  0.63435802    -0.28900
N1042       N  0.59312851  0.43772121  0.75077246    -0.45500
C1043       C  0.61411380  0.46289280  0.77209595    -0.04800
C1044       C  0.64216424  0.46795581  0.76002989    -0.22100
H1045       H  0.68118603  0.45484496  0.70456458     0.19700
H1046       H  0.57174963  0.38770895  0.69050205     0.18500
H1047       H  0.59008325  0.35713075  0.62120807     0.14700
H1048       H  0.66307137  0.48603249  0.77189134     0.14600
H1049       H  0.68255348  0.41697188  0.63479848     0.32800
H1050       H  0.57035985  0.42867065  0.75342382     0.35500
C1051       C  0.82663860  0.37085964  0.70313120     0.21100
C1052       C  0.81536329  0.36030115  0.65460686    -0.38700
C1053       C  0.78892564  0.35949970  0.64253578     0.20100
C1054       C  0.77522908  0.36925916  0.67569385     0.22800
C1055       C  0.78622577  0.37927721  0.72453868    -0.39300
C1056       C  0.81224161  0.37934181  0.73705512     0.21500
N1057       N  0.85143508  0.37388309  0.72369515    -0.32500
C1058       C  0.85232009  0.38321428  0.77200768    -0.10100
C1059       C  0.82828600  0.38717305  0.78128570    -0.28900
N1060       N  0.75088704  0.36708409  0.65462593    -0.45500
C1061       C  0.74870057  0.35516908  0.60824766    -0.04800
C1062       C  0.77193730  0.35003416  0.59936274    -0.22100
H1063       H  0.82625036  0.35304712  0.62835390     0.19700
H1064       H  0.77527265  0.38638307  0.75092439     0.18500
H1065       H  0.82305085  0.39457201  0.81593277     0.14700
H1066       H  0.77603987  0.34101396  0.56554948     0.14600
H1067       H  0.86697863  0.37034021  0.70527137     0.32800
H1068       H  0.73639143  0.37286436  0.67102402     0.35500
C1069       C  0.59629247  0.22115142  0.67126773     0.21100
C1070       C  0.59360646  0.21071288  0.72108204    -0.38700
C1071       C  0.56832287  0.18382580  0.73123905     0.20100
C1072       C  0.54754846  0.16824430  0.69448661     0.22800
C1073       C  0.55010653  0.17876643  0.64479465    -0.39300
C1074       C  0.57506679  0.20592834  0.63487773     0.21500
N1075       N  0.61787511  0.24644998  0.65223752    -0.32500
C1076       C  0.60991604  0.24759000  0.60377727    -0.10100
C1077       C  0.58340091  0.22274194  0.59157914    -0.28900
N1078       N  0.52570473  0.14319860  0.71366869    -0.45500
C1079       C  0.53224825  0.14303717  0.76342080    -0.04800
C1080       C  0.55883518  0.16800575  0.77550896    -0.22100
H1081       H  0.60982619  0.22278057  0.74996073     0.19700
H1082       H  0.53364061  0.16689603  0.61616221     0.18500
H1083       H  0.57181182  0.21771529  0.55578348     0.14700
H1084       H  0.56971011  0.17388330  0.81197692     0.14600
H1085       H  0.63639851  0.26231814  0.67135330     0.32800
H1086       H  0.00774225  0.12707842  0.69377976     0.35500
C1087       C  0.78737063  0.37832508  0.35387673     0.21100
C1088       C  0.81714983  0.39702071  0.34287498    -0.38700
C1089       C  0.82745268  0.39054530  0.29856110     0.20100
C1090       C  0.80926173  0.36767963  0.26697553     0.22800
C1091       C  0.77958790  0.34871340  0.27838921    -0.39300
C1092       C  0.76946051  0.35473581  0.32340268     0.21500
N1093       N  0.77256743  0.37929255  0.39453716    -0.32500
C1094       C  0.74526759  0.35580678  0.39055531    -0.10100
C1095       C  0.74242195  0.33987940  0.34674198    -0.28900
N1096       N  0.82431129  0.36623324  0.22706060    -0.45500
C1097       C  0.85245440  0.38750658  0.23451369    -0.04800
C1098       C  0.85527892  0.40350861  0.27814235    -0.22100
H1099       H  0.83134513  0.41495328  0.36746975     0.19700
H1100       H  0.76559449  0.33031740  0.25450079     0.18500
H1101       H  0.72330613  0.32003566  0.33403753     0.14700
H1102       H  0.87504940  0.42190098  0.29300858     0.14600
H1103       H  0.78081443  0.39442327  0.42413378     0.32800
H1104       H  0.81601100  0.35165575  0.19671574     0.37100
C1105       C  0.58287316  0.23015297  0.32366550     0.21100
C1106       C  0.56605979  0.22249321  0.27907787    -0.38700
C1107       C  0.55580218  0.19392929  0.26177233     0.20100
C1108       C  0.56145105  0.17439834  0.28739589     0.22800
C1109       C  0.57859318  0.18217248  0.33146811    -0.39300
C1110       C  0.58924385  0.21082998  0.34826553     0.21500
N1111       N  0.59486381  0.25578340  0.34836503    -0.32500
C1112       C  0.60931731  0.25279334  0.38842221    -0.10100
C1113       C  0.60641761  0.22513005  0.38948983    -0.28900
N1114       N  0.54855192  0.14838283  0.26409685    -0.45500
C1115       C  0.53454298  0.15133343  0.22342408    -0.04800
C1116       C  0.53912684  0.17961295  0.21993723    -0.22100
H1117       H  0.56123715  0.23759239  0.25944356     0.19700
H1118       H  0.58325948  0.16701157  0.35126975     0.18500
H1119       H  0.61516945  0.21646556  0.41736629     0.14700
H1120       H  0.53154407  0.18858274  0.19062812     0.14600
H1121       H  0.59338354  0.27415667  0.33856953     0.32800
H1122       H  0.54900137  0.12966859  0.27528289     0.35500
C1123       C  0.89008948  0.32641909  0.29164206     0.21100
C1124       C  0.90172093  0.31460701  0.32599870    -0.38700
C1125       C  0.88114923  0.28870650  0.34989412     0.20100
C1126       C  0.85128509  0.27559357  0.34042265     0.22800
C1127       C  0.83972272  0.28723401  0.30556084    -0.39300
C1128       C  0.86030965  0.31313609  0.28168263     0.21500
N1129       N  0.90490421  0.35101833  0.26448995    -0.32500
C1130       C  0.88442244  0.35358512  0.23721441    -0.10100
C1131       C  0.85638873  0.33001392  0.24639663    -0.28900
N1132       N  0.83629953  0.25165331  0.36921599    -0.45500
C1133       C  0.85681250  0.24945961  0.39699844    -0.04800
C1134       C  0.88503787  0.27210726  0.38582468    -0.22100
H1135       H  0.92501916  0.32494401  0.33386967     0.19700
H1136       H  0.81640308  0.27707020  0.29801709     0.18500
H1137       H  0.83593212  0.32499295  0.22858721     0.14700
H1138       H  0.90557923  0.27618927  0.40252856     0.14600
H1139       H  0.92758554  0.36534239  0.26473789     0.32800
H1140       H  0.81353494  0.23780989  0.37019611     0.35500
C1141       C  0.89082911  0.31962968  0.72961733     0.21100
C1142       C  0.90299334  0.30720192  0.69780915    -0.38700
C1143       C  0.88273234  0.28211448  0.67177186     0.20100
C1144       C  0.85267566  0.27056240  0.67658356     0.22800
C1145       C  0.84051481  0.28279905  0.70891742    -0.39300
C1146       C  0.86079362  0.30768208  0.73546200     0.21500
N1147       N  0.90537350  0.34430862  0.75638788    -0.32500
C1148       C  0.88450897  0.34827118  0.77924231    -0.10100
C1149       C  0.85638372  0.32542088  0.76814757    -0.28900
N1150       N  0.83817406  0.24780100  0.64529449    -0.45500
C1151       C  0.85913776  0.24472347  0.62074704    -0.04800
C1152       C  0.88721618  0.26557758  0.63648281    -0.22100
H1153       H  0.92647998  0.31671870  0.69289718     0.19700
H1154       H  0.81703707  0.27397807  0.71229698     0.18500
H1155       H  0.83555845  0.32266690  0.78093652     0.14700
H1156       H  0.90805174  0.26897926  0.62233343     0.14600
H1157       H  0.92813393  0.35813177  0.75773212     0.32800
H1158       H  0.81543458  0.23553111  0.64010652     0.35500
C1159       C  0.90086841  0.11755435  0.66187861     0.21100
C1160       C  0.90373147  0.09543861  0.68594771    -0.38700
C1161       C  0.92864864  0.10490931  0.71673372     0.20100
C1162       C  0.94891318  0.13413239  0.72362181     0.22800
C1163       C  0.94610534  0.15622154  0.69948495    -0.39300
C1164       C  0.92144951  0.14676192  0.66814753     0.21500
N1165       N  0.88013163  0.11428473  0.62839804    -0.32500
C1166       C  0.88790908  0.14159114  0.61266332    -0.10100
C1167       C  0.91343627  0.16240655  0.63687037    -0.28900
N1168       N  0.97082527  0.13742766  0.75417523    -0.45500
C1169       C  0.96485651  0.11006504  0.76603114    -0.04800
C1170       C  0.93850960  0.08922651  0.74376901    -0.22100
H1171       H  0.88808295  0.07255391  0.68024205     0.19700
H1172       H  0.96230976  0.17905753  0.70379643     0.18500
H1173       H  0.92512308  0.18577069  0.63099576     0.14700
H1174       H  0.92816036  0.06573123  0.74651481     0.14600
H1175       H  0.86255691  0.09466237  0.61538845     0.32800
H1176       H  0.98855231  0.15711724  0.76647363     0.35500
C1177       C  0.91012435  0.12567143  0.34194596     0.21100
C1178       C  0.91593911  0.10436197  0.32264934    -0.38700
C1179       C  0.93721753  0.11365427  0.28439303     0.20100
C1180       C  0.95136324  0.14192163  0.26610367     0.22800
C1181       C  0.94565727  0.16337722  0.28561367    -0.39300
C1182       C  0.92463793  0.15417052  0.32462587     0.21500
N1183       N  0.89138663  0.12234320  0.37935976    -0.32500
C1184       C  0.89417251  0.14895904  0.38674357    -0.10100
C1185       C  0.91472446  0.16945981  0.35323524    -0.28900
N1186       N  0.97040193  0.14500335  0.22921918    -0.45500
C1187       C  0.96883854  0.11867712  0.22492150    -0.04800
C1188       C  0.94811088  0.09852886  0.25836272    -0.22100
H1189       H  0.90488372  0.08220049  0.33676793     0.19700
H1190       H  0.95701099  0.18563285  0.27193587     0.18500
H1191       H  0.92168113  0.19242629  0.35059410     0.14700
H1192       H  0.94200124  0.07587357  0.26311934     0.14600
H1193       H  0.87803643  0.10323026  0.39958462     0.32800
H1194       H  0.98268316  0.16355110  0.20719478     0.35500
C1195       C  0.72372881  0.09365490  0.67098063     0.21100
C1196       C  0.71194562  0.09241942  0.71922793    -0.38700
C1197       C  0.68608229  0.06645343  0.73091791     0.20100
C1198       C  0.67238392  0.04378180  0.69672209     0.22800
C1199       C  0.68444754  0.04477747  0.64865675    -0.39300
C1200       C  0.71089400  0.07043827  0.63749709     0.21500
N1201       N  0.74815234  0.11593531  0.65090219    -0.32500
C1202       C  0.75136825  0.10661176  0.60479909    -0.10100
C1203       C  0.72865052  0.07829157  0.59510135    -0.28900
N1204       N  0.64760322  0.02186501  0.71679112    -0.45500
C1205       C  0.64614455  0.03007398  0.76508343    -0.04800
C1206       C  0.66974334  0.05800030  0.77474122    -0.22100
H1207       H  0.72229251  0.11028645  0.74589158     0.19700
H1208       H  0.67419415  0.02680410  0.62217705     0.18500
H1209       H  0.72526866  0.06549216  0.56116016     0.14700
H1210       H  0.67461249  0.07043100  0.80950060     0.14600
H1211       H  0.76198053  0.13612358  0.66769726     0.32800
H1212       H  0.63250086  0.00283452  0.69812809     0.35500
C1213       C  0.73258216  0.08939846  0.32365622     0.21100
C1214       C  0.72486902  0.07309393  0.27875181    -0.38700
C1215       C  0.69537715  0.06072487  0.26431685     0.20100
C1216       C  0.67501738  0.06392123  0.29289107     0.22800
C1217       C  0.68283378  0.08067464  0.33729529    -0.39300
C1218       C  0.71244817  0.09345996  0.35126312     0.21500
N1219       N  0.75889043  0.10233202  0.34661557    -0.32500
C1220       C  0.75554294  0.11508307  0.38862770    -0.10100
C1221       C  0.72697583  0.11023682  0.39270120    -0.28900
N1222       N  0.64816237  0.04889802  0.27222133    -0.45500
C1223       C  0.65155854  0.03610036  0.23033902    -0.04800
C1224       C  0.68074725  0.04350580  0.22335806    -0.22100
H1225       H  0.74057189  0.06995308  0.25703516     0.19700
H1226       H  0.66697917  0.08326586  0.35962088     0.18500
H1227       H  0.71779469  0.11697036  0.42307785     0.14700
H1228       H  0.68990618  0.03689433  0.19278476     0.14600
H1229       H  0.77782318  0.10217126  0.33486498     0.32800
H1230       H  0.62871332  0.04731151  0.28570557     0.35500
Fe1231     Fe  0.82265166  0.62661265  0.49569580     1.65800
Fe1232     Fe  0.87688029  0.69774374  0.50258687     1.73200
Fe1233     Fe  0.80482020  0.67988758  0.50658563     1.54400
O1234       O  0.77725418  0.64890483  0.45470281    -0.80900
O1235       O  0.87285504  0.71885461  0.56492384    -0.79200
O1236       O  0.79748983  0.62204410  0.43278242    -0.83400
O1237       O  0.78596471  0.61245925  0.54214184    -0.78200
O1238       O  0.82352464  0.70961426  0.44774876    -0.80000
O1239       O  0.88667106  0.67331720  0.55177028    -0.82800
C1240       C  0.77516556  0.62465916  0.56919271     0.98000
C1241       C  0.77830814  0.62974093  0.42718389     1.05400
O1242       O  0.83488217  0.66821248  0.50170179    -1.11700
O1243       O  0.88649123  0.68083948  0.43947955    -0.74200
O1244       O  0.85655751  0.63314436  0.44765064    -0.77700
O1245       O  0.78367448  0.65163055  0.56597898    -0.78400
C1246       C  0.87812332  0.65477814  0.42671375     0.96900
O1247       O  0.84739679  0.62860807  0.55816663    -0.76300
O1248       O  0.87160400  0.72548559  0.45451489    -0.81500
C1249       C  0.85277477  0.72378355  0.57964270     0.99500
C1250       C  0.85012125  0.72673366  0.43518016     1.05400
O1251       O  0.82747798  0.71190236  0.55973478    -0.77100
C1252       C  0.87295560  0.64815066  0.57196550     1.03700
N1253       N  0.53841216  0.58007921  0.99805205    -0.35800
N1254       N  0.56111542  0.55967046  0.07771410    -0.56400
N1255       N  0.58221491  0.53672377  0.00010197    -0.35800
N1256       N  0.55977407  0.55748584  0.92043810    -0.56400
C1257       C  0.53736341  0.59517709  0.03855096     0.27800
C1258       C  0.53631330  0.59364994  0.95615524     0.27800
C1259       C  0.59715286  0.53601546  0.04129341     0.27800
C1260       C  0.59668180  0.53525648  0.95884573     0.27800
C1261       C  0.54423663  0.56681286  0.10603844     0.36400
C1262       C  0.56788673  0.54295529  0.10704806     0.36400
C1263       C  0.54193442  0.56310188  0.89176970     0.36400
C1264       C  0.56607803  0.53988863  0.89282939     0.36400
C1265       C  0.53544399  0.61908292  0.02223095    -0.21100
C1266       C  0.53478156  0.61811172  0.97001406    -0.21100
C1267       C  0.62188269  0.53497370  0.02611227    -0.21100
C1268       C  0.62159313  0.53451229  0.97382008    -0.21100
C1269       C  0.54077399  0.55515619  0.15427400    -0.22200
C1270       C  0.55582006  0.53995863  0.15491489    -0.22100
C1271       C  0.53734612  0.54955297  0.84502650    -0.22200
C1272       C  0.55272288  0.53474146  0.84570597    -0.22100
C1273       C  0.53379996  0.58531732  0.08914199    -0.17500
C1274       C  0.53172437  0.58202184  0.90675616    -0.17500
C1275       C  0.58538871  0.53032846  0.90910361    -0.17500
C1276       C  0.58662548  0.53244049  0.09149152    -0.17500
H1277       H  0.53317284  0.63467592  0.04556093     0.15400
H1278       H  0.53193164  0.63280469  0.94518172     0.15400
H1279       H  0.63763646  0.53326108  0.05020611     0.15400
H1280       H  0.63703939  0.53231496  0.94964422     0.15400
H1281       H  0.52929987  0.55793140  0.18594032     0.13700
H1282       H  0.55826587  0.52872766  0.18718778     0.13700
H1283       H  0.52495707  0.55085822  0.81338469     0.13700
H1284       H  0.55450226  0.52232428  0.81470372     0.13700
H1285       H  0.53550434  0.55913926  0.99914018     0.27000
H1286       H  0.56089305  0.53328930  0.00026390     0.27000
N1287       N  0.96282878  0.54235735  0.99965083    -0.35800
N1288       N  0.93968128  0.99779689  0.92317754    -0.56400
N1289       N  0.91925876  0.95567675  0.00382857    -0.35800
N1290       N  0.94197914  0.00032671  0.08028432    -0.56400
C1291       C  0.96376915  0.55749090  0.95772658     0.27800
C1292       C  0.96463963  0.55882926  0.04013997     0.27800
C1293       C  0.90426426  0.93927947  0.96352987     0.27800
C1294       C  0.90523899  0.94055855  0.04581540     0.27800
C1295       C  0.95666426  0.52083107  0.89338426     0.36400
C1296       C  0.93307922  0.97379418  0.89584453     0.36400
C1297       C  0.95920977  0.52435833  0.10785713     0.36400
C1298       C  0.93558605  0.97717494  0.10998034     0.36400
C1299       C  0.96536162  0.58349054  0.97162091    -0.21100
C1300       C  0.96589157  0.58433493  0.02384837    -0.21100
C1301       C  0.87997152  0.91376105  0.97991139    -0.21100
C1302       C  0.88057345  0.91457386  0.03213384    -0.21100
C1303       C  0.96026780  0.51148339  0.84624266    -0.22200
C1304       C  0.94529410  0.98149681  0.84784659    -0.22100
C1305       C  0.96332212  0.51651828  0.15599646    -0.22200
C1306       C  0.94826850  0.98645907  0.15735279    -0.22100
C1307       C  0.96723851  0.54996133  0.90794880    -0.17500
C1308       C  0.96922141  0.55299781  0.09047990    -0.17500
C1309       C  0.91661915  0.94805541  0.09532992    -0.17500
C1310       C  0.91454021  0.94523338  0.91323905    -0.17500
H1311       H  0.96740308  0.60065306  0.94668856     0.15400
H1312       H  0.96843367  0.60230253  0.04710912     0.15400
H1313       H  0.86435684  0.89584437  0.95668775     0.15400
H1314       H  0.86548563  0.89738434  0.05714333     0.15400
H1315       H  0.97184781  0.52479568  0.81383544     0.13700
H1316       H  0.94307741  0.96708061  0.81696146     0.13700
H1317       H  0.97515757  0.53088027  0.18718640     0.13700
H1318       H  0.94617325  0.97305544  0.18981465     0.13700
H1319       H  0.96592604  0.52438247  0.00037517     0.27000
H1320       H  0.94044560  0.97359412  0.00276878     0.27000
N1321       N  0.54488320  0.96194952  0.00474593    -0.35800
N1322       N  0.50061270  0.93935577  0.92694879    -0.56400
N1323       N  0.95726855  0.91852935  0.00628612    -0.35800
N1324       N  0.50145937  0.94035650  0.08448681    -0.56400
C1325       C  0.56087040  0.96354164  0.96340392     0.27800
C1326       C  0.56117883  0.96419097  0.04596747     0.27800
C1327       C  0.94104537  0.90384040  0.96552800     0.27800
C1328       C  0.94158786  0.90452383  0.04793981     0.27800
C1329       C  0.52420526  0.95564186  0.89741769     0.36400
C1330       C  0.97663984  0.93215604  0.89836104     0.36400
C1331       C  0.52533066  0.95793787  0.11241868     0.36400
C1332       C  0.97782015  0.93431199  0.11315189     0.36400
C1333       C  0.58731743  0.96605705  0.97849328    -0.21100
C1334       C  0.58751422  0.96646487  0.03076502    -0.21100
C1335       C  0.91512875  0.87978348  0.98137066    -0.21100
C1336       C  0.91546221  0.88022513  0.03360125    -0.21100
C1337       C  0.51522184  0.95824582  0.84924566    -0.22200
C1338       C  0.98496789  0.94333187  0.84986303    -0.22100
C1339       C  0.51689358  0.96254657  0.15974619    -0.22200
C1340       C  0.98663114  0.94747733  0.16022021    -0.22100
C1341       C  0.55353438  0.96641233  0.91300528    -0.17500
C1342       C  0.55443033  0.96832699  0.09603734    -0.17500
C1343       C  0.94862049  0.91564985  0.09767277    -0.17500
C1344       C  0.94755525  0.91390846  0.91509780    -0.17500
H1345       H  0.60517477  0.96877193  0.95433177     0.15400
H1346       H  0.60557742  0.96961540  0.05479095     0.15400
H1347       H  0.89724941  0.86438489  0.95774986     0.15400
H1348       H  0.89786969  0.86526355  0.05818599     0.15400
H1349       H  0.52895854  0.96905614  0.81676372     0.13700
H1350       H  0.97079408  0.94038443  0.81797947     0.13700
H1351       H  0.53100202  0.97495514  0.19088856     0.13700
H1352       H  0.97277425  0.94591847  0.19180574     0.13700
H1353       H  0.52630273  0.96423315  0.00476557     0.27000
H1354       H  0.97544761  0.93947590  0.00571775     0.27000
C1355       C  0.51722827  0.62731855  0.18784047     0.03100
C1356       C  0.98610937  0.61172961  0.18870026     0.03000
C1357       C  0.97094103  0.58712731  0.15743320    -0.17500
C1358       C  0.98608142  0.57813427  0.12506786     0.03100
C1359       C  0.51713432  0.59369878  0.12440099     0.03000
C1360       C  0.53237431  0.61795762  0.15607764    -0.17500
H1361       H  0.55619812  0.62966314  0.15588653     0.05100
H1362       H  0.94712795  0.57495479  0.15797670     0.05100
C1363       C  0.89187904  0.87770753  0.20101026     0.03100
C1364       C  0.87659883  0.89349023  0.19953781     0.03000
C1365       C  0.88537424  0.91667382  0.16552873    -0.17500
C1366       C  0.90881335  0.92421564  0.13232676     0.03100
C1367       C  0.92416186  0.90860308  0.13354199     0.03000
C1368       C  0.91577946  0.88575809  0.16818664    -0.17500
H1369       H  0.92762703  0.87383566  0.16881247     0.05100
H1370       H  0.87374485  0.92881723  0.16456669     0.05100
C1371       C  0.98311403  0.60323564  0.80003305     0.03100
C1372       C  0.51441171  0.61901440  0.79969690     0.03000
C1373       C  0.52963913  0.61150822  0.83501119    -0.17500
C1374       C  0.51469115  0.58919630  0.87035715     0.03100
C1375       C  0.98373643  0.57365862  0.87067797     0.03000
C1376       C  0.96832448  0.58055933  0.83534139    -0.17500
H1377       H  0.94451526  0.56858687  0.83645124     0.05100
H1378       H  0.55344511  0.62290515  0.83489380     0.05100
C1379       C  0.89163955  0.87377182  0.81143498     0.03100
C1380       C  0.87610380  0.88944302  0.80941217     0.03000
C1381       C  0.88394868  0.91253664  0.84369705    -0.17500
C1382       C  0.90678029  0.92046703  0.87852550     0.03100
C1383       C  0.92273805  0.90552864  0.87920068     0.03000
C1384       C  0.91499118  0.88237834  0.84579865    -0.17500
H1385       H  0.92696887  0.87059760  0.84743997     0.05100
H1386       H  0.87269852  0.92502057  0.84285726     0.05100
C1387       C  0.62243196  0.51246168  0.80255480     0.03100
C1388       C  0.60726946  0.98139389  0.80504351     0.03000
C1389       C  0.58486724  0.96695788  0.84125152    -0.17500
C1390       C  0.57768950  0.98248136  0.87578098     0.03100
C1391       C  0.59291743  0.51318276  0.87388719     0.03000
C1392       C  0.61474983  0.52774777  0.83737027    -0.17500
H1393       H  0.62548578  0.55132244  0.83588916     0.05100
H1394       H  0.57320910  0.94334860  0.84343431     0.05100
C1395       C  0.62735302  0.51794630  0.19577691     0.03100
C1396       C  0.61138599  0.98711834  0.19951527     0.03000
C1397       C  0.58714759  0.97139070  0.16735454    -0.17500
C1398       C  0.57913520  0.98571241  0.13133831     0.03100
C1399       C  0.59501042  0.51648716  0.12827029     0.03000
C1400       C  0.61885395  0.53225356  0.16067626    -0.17500
H1401       H  0.63085906  0.55587458  0.15858971     0.05100
H1402       H  0.57475785  0.94779176  0.16952572     0.05100
Fe1403     Fe  0.62416010  0.81863015  0.49884321     1.65800
Fe1404     Fe  0.69534593  0.87267082  0.50576443     1.73200
Fe1405     Fe  0.67862805  0.80234070  0.49962237     1.54400
O1406       O  0.65417458  0.78197473  0.56369546    -0.80900
O1407       O  0.72397074  0.86842097  0.45683667    -0.79200
O1408       O  0.61271072  0.78163474  0.54311570    -0.83400
O1409       O  0.61865198  0.79526494  0.43321005    -0.78200
O1410       O  0.71555965  0.82614133  0.54463158    -0.80000
O1411       O  0.67801288  0.88307945  0.44388951    -0.82800
C1412       C  0.62507152  0.77535336  0.42690979     0.98000
C1413       C  0.62671269  0.77204817  0.56874754     1.05400
O1414       O  0.66602394  0.83136713  0.50158332    -1.11700
O1415       O  0.67051720  0.88162414  0.55550608    -0.74200
O1416       O  0.62645745  0.84163118  0.56368427    -0.77700
O1417       O  0.64415657  0.77357131  0.45379381    -0.78400
C1418       C  0.64559826  0.86733657  0.57682073     0.96900
O1419       O  0.62989144  0.85331534  0.45399672    -0.76300
O1420       O  0.71525962  0.86631489  0.56815055    -0.81500
C1421       C  0.72266506  0.84799448  0.42948157     0.99500
C1422       C  0.72501883  0.84879671  0.57194561     1.05400
O1423       O  0.70332953  0.82134978  0.43550002    -0.77100
C1424       C  0.65148467  0.87502449  0.43292546     1.03700
C1425       C  0.61302037  0.93829192  0.29260125     0.21100
C1426       C  0.60122488  0.91513590  0.32740267    -0.38700
C1427       C  0.62139690  0.90843104  0.34976951     0.20100
C1428       C  0.65110335  0.92367638  0.33857899     0.22800
C1429       C  0.66285502  0.94666021  0.30332192    -0.39300
C1430       C  0.64262567  0.95332715  0.28086834     0.21500
N1431       N  0.59841830  0.94872043  0.26591610    -0.32500
C1432       C  0.61881113  0.97069441  0.23693056    -0.10100
C1433       C  0.64661957  0.97390947  0.24490969    -0.28900
N1434       N  0.66571373  0.91355887  0.36616318    -0.45500
C1435       C  0.64510834  0.89163779  0.39496309    -0.04800
C1436       C  0.61720588  0.88772722  0.38550531    -0.22100
H1437       H  0.57804513  0.90325562  0.33652224     0.19700
H1438       H  0.68604237  0.95857468  0.29424262     0.18500
H1439       H  0.66686537  0.98825517  0.22551106     0.14700
H1440       H  0.59669400  0.87224498  0.40330384     0.14600
H1441       H  0.57588713  0.94125853  0.26714998     0.32800
H1442       H  0.68832855  0.92129160  0.36582522     0.35500
C1443       C  0.64546394  0.91509345  0.67184461     0.21100
C1444       C  0.65771661  0.94013787  0.70231087    -0.38700
C1445       C  0.63757526  0.94530688  0.72854037     0.20100
C1446       C  0.60753028  0.92712798  0.72417416     0.22800
C1447       C  0.59525456  0.90181661  0.69423800    -0.39300
C1448       C  0.61543165  0.89643087  0.66844085     0.21500
N1449       N  0.65987461  0.90639858  0.64092472    -0.32500
C1450       C  0.63896575  0.88193100  0.61782180    -0.10100
C1451       C  0.61092210  0.87478953  0.63435802    -0.28900
N1452       N  0.59312849  0.93772126  0.75077244    -0.45500
C1453       C  0.61411374  0.96289287  0.77209584    -0.04800
C1454       C  0.64216419  0.96795587  0.76002984    -0.22100
H1455       H  0.68118599  0.95484498  0.70456464     0.19700
H1456       H  0.57174959  0.88770901  0.69050206     0.18500
H1457       H  0.59008322  0.85713082  0.62120804     0.14700
H1458       H  0.66307133  0.98603254  0.77189128     0.14600
H1459       H  0.68255344  0.91697182  0.63479880     0.32800
H1460       H  0.57035975  0.92867067  0.75342376     0.35500
C1461       C  0.82663863  0.87085968  0.70313103     0.21100
C1462       C  0.81536333  0.86030118  0.65460668    -0.38700
C1463       C  0.78892565  0.85949969  0.64253563     0.20100
C1464       C  0.77522909  0.86925916  0.67569372     0.22800
C1465       C  0.78622579  0.87927724  0.72453852    -0.39300
C1466       C  0.81224163  0.87934184  0.73705497     0.21500
N1467       N  0.85143513  0.87388317  0.72369498    -0.32500
C1468       C  0.85232015  0.88321436  0.77200754    -0.10100
C1469       C  0.82828603  0.88717309  0.78128554    -0.28900
N1470       N  0.75088708  0.86708410  0.65462578    -0.45500
C1471       C  0.74870059  0.85516911  0.60824753    -0.04800
C1472       C  0.77193730  0.85003414  0.59936259    -0.22100
H1473       H  0.82625041  0.85304718  0.62835369     0.19700
H1474       H  0.77527267  0.88638314  0.75092416     0.18500
H1475       H  0.82305086  0.89457202  0.81593261     0.14700
H1476       H  0.77603987  0.84101393  0.56554934     0.14600
H1477       H  0.86697866  0.87034030  0.70527118     0.32800
H1478       H  0.73639147  0.87286442  0.67102393     0.35500
C1479       C  0.59629251  0.72115139  0.67126771     0.21100
C1480       C  0.59360654  0.71071278  0.72108197    -0.38700
C1481       C  0.56832296  0.68382571  0.73123899     0.20100
C1482       C  0.54754855  0.66824422  0.69448656     0.22800
C1483       C  0.55010659  0.67876636  0.64479461    -0.39300
C1484       C  0.57506679  0.70592832  0.63487773     0.21500
N1485       N  0.61787509  0.74644996  0.65223748    -0.32500
C1486       C  0.60991602  0.74759004  0.60377728    -0.10100
C1487       C  0.58340089  0.72274196  0.59157918    -0.28900
N1488       N  0.52570482  0.64319852  0.71366863    -0.45500
C1489       C  0.53224835  0.64303710  0.76342074    -0.04800
C1490       C  0.55883528  0.66800566  0.77550889    -0.22100
H1491       H  0.60982629  0.72278045  0.74996066     0.19700
H1492       H  0.53364069  0.66689593  0.61616216     0.18500
H1493       H  0.57181181  0.71771531  0.55578352     0.14700
H1494       H  0.56971021  0.67388320  0.81197686     0.14600
H1495       H  0.63639857  0.76231816  0.67135331     0.32800
H1496       H  0.00774235  0.62707833  0.69377968     0.35500
C1497       C  0.78737057  0.87832512  0.35387651     0.21100
C1498       C  0.81714976  0.89702080  0.34287463    -0.38700
C1499       C  0.82745260  0.89054534  0.29856080     0.20100
C1500       C  0.80926168  0.86767956  0.26697539     0.22800
C1501       C  0.77958786  0.84871329  0.27838918    -0.39300
C1502       C  0.76946045  0.85473579  0.32340256     0.21500
N1503       N  0.77256742  0.87929265  0.39453701    -0.32500
C1504       C  0.74526757  0.85580687  0.39055522    -0.10100
C1505       C  0.74242190  0.83987943  0.34674194    -0.28900
N1506       N  0.82431126  0.86623313  0.22706057    -0.45500
C1507       C  0.85245434  0.88750650  0.23451357    -0.04800
C1508       C  0.85527884  0.90350865  0.27814208    -0.22100
H1509       H  0.83134505  0.91495344  0.36746927     0.19700
H1510       H  0.76559451  0.83031720  0.25450088     0.18500
H1511       H  0.72330609  0.82003565  0.33403761     0.14700
H1512       H  0.87504929  0.92190107  0.29300825     0.14600
H1513       H  0.78081445  0.89442337  0.42413351     0.32800
H1514       H  0.81601095  0.85165553  0.19671570     0.37100
C1515       C  0.58287314  0.73015309  0.32366541     0.21100
C1516       C  0.56605978  0.72249332  0.27907777    -0.38700
C1517       C  0.55580221  0.69392942  0.26177219     0.20100
C1518       C  0.56145109  0.67439849  0.28739576     0.22800
C1519       C  0.57859319  0.68217263  0.33146800    -0.39300
C1520       C  0.58924385  0.71083011  0.34826544     0.21500
N1521       N  0.59486377  0.75578349  0.34836497    -0.32500
C1522       C  0.60931727  0.75279345  0.38842210    -0.10100
C1523       C  0.60641761  0.72513017  0.38948975    -0.28900
N1524       N  0.54855195  0.64838295  0.26409680    -0.45500
C1525       C  0.53454301  0.65133353  0.22342402    -0.04800
C1526       C  0.53912684  0.67961304  0.21993713    -0.22100
H1527       H  0.56123709  0.73759249  0.25944350     0.19700
H1528       H  0.58325947  0.66701171  0.35126964     0.18500
H1529       H  0.61516949  0.71646571  0.41736619     0.14700
H1530       H  0.53154403  0.68858278  0.19062800     0.14600
H1531       H  0.59338348  0.77415681  0.33856948     0.32800
H1532       H  0.54900137  0.62966871  0.27528292     0.35500
C1533       C  0.89008949  0.82641904  0.29164197     0.21100
C1534       C  0.90172093  0.81460694  0.32599859    -0.38700
C1535       C  0.88114921  0.78870641  0.34989395     0.20100
C1536       C  0.85128506  0.77559354  0.34042258     0.22800
C1537       C  0.83972270  0.78723398  0.30556074    -0.39300
C1538       C  0.86030964  0.81313603  0.28168252     0.21500
N1539       N  0.90490417  0.85101828  0.26448991    -0.32500
C1540       C  0.88442241  0.85358507  0.23721440    -0.10100
C1541       C  0.85638871  0.83001386  0.24639658    -0.28900
N1542       N  0.83629948  0.75165332  0.36921600    -0.45500
C1543       C  0.85681243  0.74945954  0.39699835    -0.04800
C1544       C  0.88503783  0.77210713  0.38582446    -0.22100
H1545       H  0.92501916  0.82494394  0.33386961     0.19700
H1546       H  0.81640306  0.77707023  0.29801699     0.18500
H1547       H  0.83593210  0.82499286  0.22858719     0.14700
H1548       H  0.90557919  0.77618911  0.40252825     0.14600
H1549       H  0.92758556  0.86534240  0.26473785     0.32800
H1550       H  0.81353488  0.73780995  0.37019620     0.35500
C1551       C  0.89082917  0.81962977  0.72961715     0.21100
C1552       C  0.90299340  0.80720201  0.69780898    -0.38700
C1553       C  0.88273241  0.78211450  0.67177185     0.20100
C1554       C  0.85267574  0.77056239  0.67658360     0.22800
C1555       C  0.84051490  0.78279905  0.70891741    -0.39300
C1556       C  0.86079370  0.80768213  0.73546193     0.21500
N1557       N  0.90537359  0.84430876  0.75638760    -0.32500
C1558       C  0.88450906  0.84827130  0.77924212    -0.10100
C1559       C  0.85638380  0.82542098  0.76814743    -0.28900
N1560       N  0.83817412  0.74780100  0.64529441    -0.45500
C1561       C  0.85913785  0.74472353  0.62074693    -0.04800
C1562       C  0.88721626  0.76557762  0.63648274    -0.22100
H1563       H  0.92648003  0.81671887  0.69289685     0.19700
H1564       H  0.81703715  0.77397807  0.71229690     0.18500
H1565       H  0.83555853  0.82266703  0.78093632     0.14700
H1566       H  0.90805182  0.76897935  0.62233331     0.14600
H1567       H  0.92813397  0.85813192  0.75773166     0.32800
H1568       H  0.81543471  0.73553115  0.64010639     0.35500
C1569       C  0.90086854  0.61755428  0.66187826     0.21100
C1570       C  0.90373160  0.59543853  0.68594733    -0.38700
C1571       C  0.92864875  0.60490925  0.71673344     0.20100
C1572       C  0.94891324  0.63413234  0.72362171     0.22800
C1573       C  0.94610537  0.65622149  0.69948492    -0.39300
C1574       C  0.92144960  0.64676185  0.66814734     0.21500
N1575       N  0.88013177  0.61428469  0.62839766    -0.32500
C1576       C  0.88790920  0.64159112  0.61266309    -0.10100
C1577       C  0.91343635  0.66240649  0.63687023    -0.28900
N1578       N  0.97082531  0.63742759  0.75417518    -0.45500
C1579       C  0.96485659  0.61006497  0.76603097    -0.04800
C1580       C  0.93850972  0.58922645  0.74376870    -0.22100
H1581       H  0.88808310  0.57255384  0.68024158     0.19700
H1582       H  0.96230973  0.67905749  0.70379657     0.18500
H1583       H  0.92512310  0.68577064  0.63099580     0.14700
H1584       H  0.92816052  0.56573117  0.74651439     0.14600
H1585       H  0.86255705  0.59466236  0.61538802     0.32800
H1586       H  0.98855235  0.65711718  0.76647368     0.35500
C1587       C  0.91012440  0.62567154  0.34194590     0.21100
C1588       C  0.91593920  0.60436210  0.32264931    -0.38700
C1589       C  0.93721761  0.61365438  0.28439300     0.20100
C1590       C  0.95136327  0.64192172  0.26610359     0.22800
C1591       C  0.94565728  0.66337731  0.28561356    -0.39300
C1592       C  0.92463796  0.65417062  0.32462580     0.21500
N1593       N  0.89138668  0.62234330  0.37935970    -0.32500
C1594       C  0.89417251  0.64895909  0.38674352    -0.10100
C1595       C  0.91472444  0.66945988  0.35323516    -0.28900
N1596       N  0.97040189  0.64500343  0.22921896    -0.45500
C1597       C  0.96883852  0.61867719  0.22492132    -0.04800
C1598       C  0.94811092  0.59852895  0.25836262    -0.22100
H1599       H  0.90488379  0.58220062  0.33676791     0.19700
H1600       H  0.95701094  0.68563292  0.27193569     0.18500
H1601       H  0.92168105  0.69242635  0.35059405     0.14700
H1602       H  0.94200131  0.57587366  0.26311922     0.14600
H1603       H  0.87803648  0.60323033  0.39958463     0.32800
H1604       H  0.98268305  0.66355112  0.20719456     0.35500
C1605       C  0.72372885  0.59365481  0.67098072     0.21100
C1606       C  0.71194570  0.59241931  0.71922806    -0.38700
C1607       C  0.68608235  0.56645336  0.73091804     0.20100
C1608       C  0.67238396  0.54378174  0.69672220     0.22800
C1609       C  0.68444761  0.54477738  0.64865692    -0.39300
C1610       C  0.71089403  0.57043819  0.63749719     0.21500
N1611       N  0.74815237  0.61593521  0.65090228    -0.32500
C1612       C  0.75136826  0.60661170  0.60479914    -0.10100
C1613       C  0.72865054  0.57829149  0.59510145    -0.28900
N1614       N  0.64760328  0.52186498  0.71679122    -0.45500
C1615       C  0.64614460  0.53007391  0.76508351    -0.04800
C1616       C  0.66974342  0.55800021  0.77474137    -0.22100
H1617       H  0.72229266  0.61028630  0.74589177     0.19700
H1618       H  0.67419426  0.52680396  0.62217732     0.18500
H1619       H  0.72526869  0.56549201  0.56116036     0.14700
H1620       H  0.67461263  0.57043085  0.80950083     0.14600
H1621       H  0.76198062  0.63612345  0.66769739     0.32800
H1622       H  0.63250091  0.50283443  0.69812810     0.35500
C1623       C  0.73258208  0.58939833  0.32365641     0.21100
C1624       C  0.72486893  0.57309379  0.27875202    -0.38700
C1625       C  0.69537706  0.56072469  0.26431707     0.20100
C1626       C  0.67501730  0.56392105  0.29289127     0.22800
C1627       C  0.68283370  0.58067447  0.33729548    -0.39300
C1628       C  0.71244809  0.59345981  0.35126332     0.21500
N1629       N  0.75889035  0.60233185  0.34661581    -0.32500
C1630       C  0.75554285  0.61508291  0.38862792    -0.10100
C1631       C  0.72697574  0.61023664  0.39270142    -0.28900
N1632       N  0.64816228  0.54889786  0.27222150    -0.45500
C1633       C  0.65155848  0.53610025  0.23033914    -0.04800
C1634       C  0.68074718  0.54350562  0.22335827    -0.22100
H1635       H  0.74057179  0.56995293  0.25703537     0.19700
H1636       H  0.66697908  0.58326566  0.35962109     0.18500
H1637       H  0.71779457  0.61697016  0.42307808     0.14700
H1638       H  0.68990611  0.53689414  0.19278497     0.14600
H1639       H  0.77782310  0.60217109  0.33486524     0.32800
H1640       H  0.62871324  0.54731134  0.28570568     0.35500
loop_ 
_geom_bond_atom_site_label_1 
_geom_bond_atom_site_label_2 
_geom_bond_distance 
_geom_bond_site_symmetry_2 
_ccdc_geom_bond_type 
Fe1          O17   2.069       .  S
Fe1           O7   2.082       .  S
Fe1          O14   2.069       .  S
Fe1           O6   2.059       .  S
Fe1          O12   1.967       .  S
Fe2           O5   2.057       .  S
Fe2           O9   2.068       .  S
Fe2          O13   2.067       .  S
Fe2          O18   2.060       .  S
Fe2          O12   1.967       .  S
Fe3          O21   2.060       .  S
Fe3           O8   2.075       .  S
Fe3          O15   2.066       .  S
Fe3           O4   2.071       .  S
Fe3          O12   1.964       .  S
O4           C11   1.270       .  A
O5           C19   1.266       .  A
O6           C11   1.269       .  A
O7           C10   1.269       .  A
O8           C20   1.273       .  A
O9           C22   1.272       .  A
C10          O15   1.267       .  A
C10         C382   1.471       .  S
C11         C400   1.463       .  S
O13          C16   1.266       .  A
O14          C16   1.267       .  A
C16         C364   1.475       .  S
O17          C22   1.273       .  A
O18          C20   1.269       .  A
C19          O21   1.266       .  A
C19         C331   1.465       .  S
C20         C313   1.470       .  S
C22         C346   1.470       .  S
N23          C28   1.352       .  A
N23          C27   1.351   1_556  A
N23          H55   1.040       .  S
N24          C31   1.349       .  A
N24          C32   1.349       .  A
N25          C30   1.351   1_554  A
N25          C29   1.352       .  A
N25          H56   1.041       .  S
N26          C33   1.347       .  A
N26          C34   1.346       .  A
C27          C35   1.386       .  A
C27          C43   1.411       .  A
C28          C44   1.410       .  A
C28          C36   1.385       .  A
C29          C37   1.386       .  A
C29          C46   1.411       .  A
C30          C45   1.410       .  A
C30          C38   1.385       .  A
C31          C43   1.411       .  A
C31          C39   1.386       .  A
C32          C46   1.411       .  A
C32          C40   1.386       .  A
C33          C41   1.386       .  A
C33          C44   1.407       .  A
C34          C42   1.386       .  A
C34          C45   1.407       .  A
C35          C36   1.378   1_554  A
C35          H47   1.082       .  S
C36          H48   1.082       .  S
C37          C38   1.380   1_554  A
C37          H49   1.082       .  S
C38          H50   1.082       .  S
C39          C40   1.379       .  A
C39          H51   1.082       .  S
C40          H52   1.082       .  S
C41          C42   1.377       .  A
C41          H53   1.081       .  S
C42          H54   1.082       .  S
C43         C129   1.488       .  S
C44         C144   1.485       .  S
C45         C161   1.483       .  S
C46         C169   1.489       .  S
N57          C62   1.351   1_556  A
N57          C61   1.352       .  A
N57          H89   1.041   1_556  S
N58          C66   1.347       .  A
N58         C475   1.347       .  A
N59          C64   1.349       .  A
N59          C63   1.350   1_554  A
N59          H90   1.042       .  S
N60          C68   1.348       .  A
N60         C477   1.348       .  A
C61          C69   1.385       .  A
C61          C77   1.410       .  A
C62          C78   1.411       .  A
C62          C70   1.386       .  A
C63          C71   1.385       .  A
C63          C80   1.407       .  A
C64          C79   1.409       .  A
C64          C72   1.387       .  A
C65         N468   1.347   1_545  A
C65          C77   1.406       .  A
C65          C73   1.386       .  A
C66          C80   1.405       .  A
C66          C74   1.385       .  A
C67         N470   1.348       .  A
C67          C75   1.386       .  A
C67          C78   1.410       .  A
C68          C76   1.386       .  A
C68          C79   1.409       .  A
C69          C70   1.378   1_556  A
C69          H81   1.082       .  S
C70          H82   1.082       .  S
C71          C72   1.378   1_556  A
C71          H83   1.082       .  S
C72          H84   1.082       .  S
C73         C484   1.376   1_545  A
C73          H85   1.081       .  S
C74         C483   1.376       .  A
C74          H86   1.082       .  S
C75         C486   1.379   1_545  A
C75          H87   1.082       .  S
C76         C485   1.379       .  A
C76          H88   1.082       .  S
C77         C145   1.485       .  S
C78         C128   1.487       .  S
C79         C136   1.482       .  S
C80         C152   1.479       .  S
N91          C96   1.352       .  A
N91          C95   1.353   1_554  A
N91         H123   1.041       .  S
N92          C99   1.349       .  A
N92         C920   1.349   1_455  A
N93          C98   1.351       .  A
N93          C97   1.351   1_554  A
N93         H124   1.042       .  S
N94         C101   1.348       .  A
N94         C922   1.348   1_455  A
C95         C103   1.386       .  A
C95         C111   1.413       .  A
C96         C112   1.412       .  A
C96         C104   1.386       .  A
C97         C105   1.385       .  A
C97         C114   1.410       .  A
C98         C113   1.410       .  A
C98         C106   1.386       .  A
C99         C111   1.411       .  A
C99         C107   1.386       .  A
C100        N912   1.349       .  A
C100        C114   1.410       .  A
C100        C108   1.385       .  A
C101        C109   1.386       .  A
C101        C112   1.409       .  A
C102        N914   1.348       .  A
C102        C110   1.386       .  A
C102        C113   1.408       .  A
C103        C104   1.379   1_556  A
C103        H115   1.082       .  S
C104        H116   1.082       .  S
C105        C106   1.378   1_556  A
C105        H117   1.082       .  S
C106        H118   1.082       .  S
C107        C928   1.377   1_455  A
C107        H119   1.082       .  S
C108        C927   1.377       .  A
C108        H120   1.082       .  S
C109        C930   1.378   1_455  A
C109        H121   1.082       .  S
C110        C929   1.378       .  A
C110        H122   1.082       .  S
C111        C160   1.490       .  S
C112        C168   1.486       .  S
C113        C137   1.485       .  S
C114        C153   1.489       .  S
C125        C295   1.473       .  S
C125        C130   1.404       .  A
C125        C946   1.417   1_455  A
C126        C367   1.484       .  S
C126        C127   1.405       .  A
C126        C945   1.417       .  A
C127        C128   1.401       .  A
C127        H132   1.084       .  S
C128        C949   1.414       .  A
C129        C130   1.401       .  A
C129        C948   1.414   1_455  A
C130        H131   1.084       .  S
C133        C310   1.482       .  S
C133        C134   1.417       .  A
C133        C138   1.404       .  A
C134        C277   1.469       .  S
C134        C135   1.399       .  A
C135        C136   1.397       .  A
C135        H140   1.085       .  S
C136        C137   1.412       .  A
C137        C138   1.400       .  A
C138        H139   1.084       .  S
C141        C349   1.483       .  S
C141        C146   1.407       .  A
C141        C962   1.425       .  A
C142        C259   1.490       .  S
C142        C143   1.408       .  A
C142        C961   1.425   1_455  A
C143        C144   1.398       .  A
C143        H148   1.084       .  S
C144        C965   1.409   1_455  A
C145        C146   1.397       .  A
C145        C964   1.409       .  A
C146        H147   1.084       .  S
C149        C328   1.476       .  S
C149        C150   1.424       .  A
C149        C154   1.406       .  A
C150        C238   1.494       .  S
C150        C151   1.407       .  A
C151        C152   1.399       .  A
C151        H156   1.083       .  S
C152        C153   1.409       .  A
C153        C154   1.395       .  A
C154        H155   1.084       .  S
C157        C385   1.496       .  S
C157        C162   1.409       .  A
C157        C568   1.426   1_545  A
C158        C223   1.481       .  S
C158        C159   1.408       .  A
C158        C567   1.426       .  A
C159        C160   1.398       .  A
C159        H164   1.084       .  S
C160        C571   1.409       .  A
C161        C162   1.398       .  A
C161        C570   1.409   1_545  A
C162        H163   1.083       .  S
C165        C403   1.467       .  S
C165        C170   1.402       .  A
C165        C576   1.417   1_545  A
C166        C202   1.489       .  S
C166        C167   1.406       .  A
C166        C575   1.417       .  A
C167        C168   1.404       .  A
C167        H172   1.084       .  S
C168        C579   1.414       .  A
C169        C170   1.398       .  A
C169        C578   1.414   1_545  A
C170        H171   1.085       .  S
Fe173       O189   2.075       .  S
Fe173       O179   2.062       .  S
Fe173       O186   2.067       .  S
Fe173       O178   2.093       .  S
Fe173       O184   1.953       .  S
Fe174       O177   2.076       .  S
Fe174       O181   2.072       .  S
Fe174       O185   2.064       .  S
Fe174       O190   2.065       .  S
Fe174       O184   1.950       .  S
Fe175       O193   2.062       .  S
Fe175       O180   2.079       .  S
Fe175       O187   2.076       .  S
Fe175       O176   2.070       .  S
Fe175       O184   1.952       .  S
O176        C183   1.272       .  A
O177        C191   1.272       .  A
O178        C183   1.275       .  A
O179        C182   1.266       .  A
O180        C192   1.268       .  A
O181        C194   1.270       .  A
C182        O187   1.269       .  A
C182        C292   1.468       .  S
C183        C256   1.472       .  S
O185        C188   1.270       .  A
O186        C188   1.272       .  A
C188        C220   1.468       .  S
O189        C194   1.271       .  A
O190        C192   1.266       .  A
C191        O193   1.271       .  A
C191        C274   1.464       .  S
C192        C241   1.469       .  S
C194        C205   1.477       .  S
C195        N201   1.345       .  A
C195        C200   1.383       .  A
C195        C196   1.404       .  A
C196        C197   1.403       .  A
C196        H207   1.082       .  S
C197        C206   1.377       .  A
C197        C198   1.384       .  A
C198        N204   1.347       .  A
C198        C199   1.406       .  A
C199        C200   1.406       .  A
C199        H208   1.082       .  S
C200        C203   1.379       .  A
N201        C202   1.357       .  A
N201        H211   1.044       .  S
C202        C203   1.399       .  A
C203        H209   1.079       .  S
N204        C205   1.357       .  A
N204        H212   1.045       .  S
C205        C206   1.396       .  A
C206        H210   1.082       .  S
C213        N219   1.340       .  A
C213        C218   1.385       .  A
C213        C214   1.402       .  A
C214        C215   1.400       .  A
C214        H225   1.082       .  S
C215        C224   1.377       .  A
C215        C216   1.384       .  A
C216        N222   1.341       .  A
C216        C217   1.404       .  A
C217        C218   1.402       .  A
C217        H226   1.082       .  S
C218        C221   1.380       .  A
N219        C220   1.355       .  A
N219        H229   1.045       .  S
C220        C221   1.395       .  A
C221        H227   1.082       .  S
N222        C223   1.357       .  A
N222        H230   1.045       .  S
C223        C224   1.396       .  A
C224        H228   1.082       .  S
C231        N237   1.344       .  A
C231        C236   1.382       .  A
C231        C232   1.404       .  A
C232        C233   1.404       .  A
C232        H243   1.082       .  S
C233        C242   1.378       .  A
C233        C234   1.385       .  A
C234        N240   1.345       .  A
C234        C235   1.404       .  A
C235        C236   1.404       .  A
C235        H244   1.082       .  S
C236        C239   1.377       .  A
N237        C238   1.359       .  A
N237        H247   1.044       .  S
C238        C239   1.400       .  A
C239        H245   1.082       .  S
N240        C241   1.355       .  A
N240        H248   1.045       .  S
C241        C242   1.395       .  A
C242        H246   1.083       .  S
C249        N255   1.347       .  A
C249        C254   1.385       .  A
C249        C250   1.405       .  A
C250        C251   1.405       .  A
C250        H261   1.082       .  S
C251        C260   1.377       .  A
C251        C252   1.383       .  A
C252        N258   1.346       .  A
C252        C253   1.404       .  A
C253        C254   1.405       .  A
C253        H262   1.082       .  S
C254        C257   1.378       .  A
N255        C256   1.356       .  A
N255        H265   1.045       .  S
C256        C257   1.395       .  A
C257        H263   1.082       .  S
N258        C259   1.358       .  A
N258       H1086   1.044       .  S
C259        C260   1.399       .  A
C260        H264   1.082       .  S
H266       N1078   1.044       .  S
C267        N273   1.340       .  A
C267        C272   1.385       .  A
C267        C268   1.402       .  A
C268        C269   1.400       .  A
C268        H279   1.082       .  S
C269        C278   1.377       .  A
C269        C270   1.385       .  A
C270        N276   1.341       .  A
C270        C271   1.402       .  A
C271        C272   1.401       .  A
C271        H280   1.082       .  S
C272        C275   1.378       .  A
N273        C274   1.354       .  A
N273        H283   1.045       .  S
C274        C275   1.394       .  A
C275        H281   1.082       .  S
N276        C277   1.353       .  A
N276        H284   1.044       .  S
C277        C278   1.392       .  A
C278        H282   1.082       .  S
C285        N291   1.345       .  A
C285        C290   1.385       .  A
C285        C286   1.404       .  A
C286        C287   1.404       .  A
C286        H297   1.082       .  S
C287        C296   1.378       .  A
C287        C288   1.385       .  A
C288        N294   1.342       .  A
C288        C289   1.401       .  A
C289        C290   1.401       .  A
C289        H298   1.082       .  S
C290        C293   1.374       .  A
N291        C292   1.355       .  A
N291        H301   1.045       .  S
C292        C293   1.394       .  A
C293        H299   1.083       .  S
N294        C295   1.353       .  A
N294        H302   1.044       .  S
C295        C296   1.395       .  A
C296        H300   1.081       .  S
C303        N309   1.342       .  A
C303        C308   1.383       .  A
C303        C304   1.402       .  A
C304        C305   1.402       .  A
C304        H315   1.082       .  S
C305        C314   1.375       .  A
C305        C306   1.385       .  A
C306        N312   1.344       .  A
C306        C307   1.402       .  A
C307        C308   1.402       .  A
C307        H316   1.082       .  S
C308        C311   1.374       .  A
N309        C310   1.356       .  A
N309        H319   1.045       .  S
C310        C311   1.397       .  A
C311        H317   1.077       .  S
N312        C313   1.355       .  A
N312        H320   1.045       .  S
C313        C314   1.396       .  A
C314        H318   1.083       .  S
C321        N327   1.339       .  A
C321        C326   1.384       .  A
C321        C322   1.401       .  A
C322        C323   1.399       .  A
C322        H333   1.083       .  S
C323        C332   1.375       .  A
C323        C324   1.385       .  A
C324        N330   1.341       .  A
C324        C325   1.402       .  A
C325        C326   1.400       .  A
C325        H334   1.082       .  S
C326        C329   1.376       .  A
N327        C328   1.355       .  A
N327        H337   1.045       .  S
C328        C329   1.396       .  A
C329        H335   1.082       .  S
N330        C331   1.355       .  A
N330        H338   1.045       .  S
C331        C332   1.394       .  A
C332        H336   1.082       .  S
C339        N345   1.345       .  A
C339        C344   1.385       .  A
C339        C340   1.403       .  A
C340        C341   1.403       .  A
C340        H351   1.082       .  S
C341        C350   1.376       .  A
C341        C342   1.384       .  A
C342        N348   1.343       .  A
C342        C343   1.401       .  A
C343        C344   1.402       .  A
C343        H352   1.082       .  S
C344        C347   1.375       .  A
N345        C346   1.355       .  A
N345        H355   1.045       .  S
C346        C347   1.395       .  A
C347        H353   1.083       .  S
N348        C349   1.356       .  A
N348        H356   1.044       .  S
C349        C350   1.398       .  A
C350        H354   1.082       .  S
C357        N363   1.341       .  A
C357        C362   1.384       .  A
C357        C358   1.402       .  A
C358        C359   1.400       .  A
C358        H369   1.082       .  S
C359        C368   1.376       .  A
C359        C360   1.383       .  A
C360        N366   1.345       .  A
C360        C361   1.407       .  A
C361        C362   1.406       .  A
C361        H370   1.082       .  S
C362        C365   1.383       .  A
N363        C364   1.355       .  A
N363        H373   1.045       .  S
C364        C365   1.398       .  A
C365        H371   1.082       .  S
N366        C367   1.358       .  A
N366        H374   1.042       .  S
C367        C368   1.394       .  A
C368        H372   1.082       .  S
C375        N381   1.344       .  A
C375        C380   1.385       .  A
C375        C376   1.402       .  A
C376        C377   1.402       .  A
C376        H387   1.082       .  S
C377        C386   1.375       .  A
C377        C378   1.382       .  A
C378        N384   1.347       .  A
C378        C379   1.406       .  A
C379        C380   1.407       .  A
C379        H388   1.082       .  S
C380        C383   1.381       .  A
N381        C382   1.354       .  A
N381        H391   1.045       .  S
C382        C383   1.397       .  A
C383        H389   1.082       .  S
N384        C385   1.360       .  A
N384        H392   1.044       .  S
C385        C386   1.399       .  A
C386        H390   1.082       .  S
C393        N399   1.342       .  A
C393        C398   1.385       .  A
C393        C394   1.401       .  A
C394        C395   1.400       .  A
C394        H405   1.082       .  S
C395        C404   1.375       .  A
C395        C396   1.385       .  A
C396        N402   1.342       .  A
C396        C397   1.401       .  A
C397        C398   1.401       .  A
C397        H406   1.082       .  S
C398        C401   1.375       .  A
N399        C400   1.353       .  A
N399        H409   1.045       .  S
C400        C401   1.394       .  A
C401        H407   1.083       .  S
N402        C403   1.353       .  A
N402        H410   1.044       .  S
C403        C404   1.392       .  A
C404        H408   1.082       .  S
Fe411       O427   2.069       .  S
Fe411       O417   2.082       .  S
Fe411       O424   2.069       .  S
Fe411       O416   2.059       .  S
Fe411       O422   1.967       .  S
Fe412       O415   2.057       .  S
Fe412       O419   2.068       .  S
Fe412       O423   2.067       .  S
Fe412       O428   2.060       .  S
Fe412       O422   1.967       .  S
Fe413       O431   2.060       .  S
Fe413       O418   2.075       .  S
Fe413       O425   2.066       .  S
Fe413       O414   2.071       .  S
Fe413       O422   1.964       .  S
O414        C421   1.270       .  A
O415        C429   1.266       .  A
O416        C421   1.269       .  A
O417        C420   1.269       .  A
O418        C430   1.273       .  A
O419        C432   1.272       .  A
C420        O425   1.267       .  A
C420        C792   1.471       .  S
C421        C810   1.463       .  S
O423        C426   1.266       .  A
O424        C426   1.267       .  A
C426        C774   1.475       .  S
O427        C432   1.273       .  A
O428        C430   1.269       .  A
C429        O431   1.266       .  A
C429        C741   1.465       .  S
C430        C723   1.470       .  S
C432        C756   1.470       .  S
N433        C438   1.352       .  A
N433        C437   1.351   1_556  A
N433        H465   1.040       .  S
N434        C441   1.349       .  A
N434        C442   1.349       .  A
N435        C440   1.351   1_554  A
N435        C439   1.352       .  A
N435        H466   1.041       .  S
N436        C443   1.347       .  A
N436        C444   1.346       .  A
C437        C445   1.386       .  A
C437        C453   1.411       .  A
C438        C454   1.410       .  A
C438        C446   1.385       .  A
C439        C447   1.386       .  A
C439        C456   1.411       .  A
C440        C455   1.410       .  A
C440        C448   1.385       .  A
C441        C453   1.411       .  A
C441        C449   1.386       .  A
C442        C456   1.411       .  A
C442        C450   1.386       .  A
C443        C451   1.386       .  A
C443        C454   1.407       .  A
C444        C452   1.386       .  A
C444        C455   1.407       .  A
C445        C446   1.378   1_554  A
C445        H457   1.082       .  S
C446        H458   1.082       .  S
C447        C448   1.380   1_554  A
C447        H459   1.082       .  S
C448        H460   1.082       .  S
C449        C450   1.379       .  A
C449        H461   1.082       .  S
C450        H462   1.082       .  S
C451        C452   1.377       .  A
C451        H463   1.081       .  S
C452        H464   1.082       .  S
C453        C539   1.488       .  S
C454        C554   1.485       .  S
C455        C571   1.483       .  S
C456        C579   1.489       .  S
N467        C472   1.351   1_556  A
N467        C471   1.352       .  A
N467        H499   1.041   1_556  S
N468        C476   1.347       .  A
N469        C474   1.349       .  A
N469        C473   1.350   1_554  A
N469        H500   1.042       .  S
N470        C478   1.348   1_545  A
C471        C479   1.385       .  A
C471        C487   1.410       .  A
C472        C488   1.411       .  A
C472        C480   1.386       .  A
C473        C481   1.385       .  A
C473        C490   1.407       .  A
C474        C489   1.409       .  A
C474        C482   1.387       .  A
C475        C487   1.406       .  A
C475        C483   1.386       .  A
C476        C490   1.405       .  A
C476        C484   1.385       .  A
C477        C485   1.386       .  A
C477        C488   1.410       .  A
C478        C486   1.386       .  A
C478        C489   1.409       .  A
C479        C480   1.378   1_556  A
C479        H491   1.082       .  S
C480        H492   1.082       .  S
C481        C482   1.378   1_556  A
C481        H493   1.082       .  S
C482        H494   1.082       .  S
C483        H495   1.081       .  S
C484        H496   1.082       .  S
C485        H497   1.082       .  S
C486        H498   1.082       .  S
C487        C555   1.485       .  S
C488        C538   1.487       .  S
C489        C546   1.482       .  S
C490        C562   1.479       .  S
N501        C506   1.352       .  A
N501        C505   1.353   1_554  A
N501        H533   1.041       .  S
N502        C509   1.349       .  A
N502       C1330   1.349   1_455  A
N503        C508   1.351       .  A
N503        C507   1.351   1_554  A
N503        H534   1.042       .  S
N504        C511   1.348       .  A
N504       C1332   1.348   1_455  A
C505        C513   1.386       .  A
C505        C521   1.413       .  A
C506        C522   1.412       .  A
C506        C514   1.386       .  A
C507        C515   1.385       .  A
C507        C524   1.410       .  A
C508        C523   1.410       .  A
C508        C516   1.386       .  A
C509        C521   1.411       .  A
C509        C517   1.386       .  A
C510       N1322   1.349       .  A
C510        C524   1.410       .  A
C510        C518   1.385       .  A
C511        C519   1.386       .  A
C511        C522   1.409       .  A
C512       N1324   1.348       .  A
C512        C520   1.386       .  A
C512        C523   1.408       .  A
C513        C514   1.379   1_556  A
C513        H525   1.082       .  S
C514        H526   1.082       .  S
C515        C516   1.378   1_556  A
C515        H527   1.082       .  S
C516        H528   1.082       .  S
C517       C1338   1.377   1_455  A
C517        H529   1.082       .  S
C518       C1337   1.377       .  A
C518        H530   1.082       .  S
C519       C1340   1.378   1_455  A
C519        H531   1.082       .  S
C520       C1339   1.378       .  A
C520        H532   1.082       .  S
C521        C570   1.490       .  S
C522        C578   1.486       .  S
C523        C547   1.485       .  S
C524        C563   1.489       .  S
C535        C705   1.473       .  S
C535       C1356   1.417   1_455  A
C535        C540   1.404       .  A
C536        C777   1.484       .  S
C536       C1355   1.417       .  A
C536        C537   1.405       .  A
C537        C538   1.401       .  A
C537        H542   1.084       .  S
C538       C1359   1.414       .  A
C539       C1358   1.414   1_455  A
C539        C540   1.401       .  A
C540        H541   1.084       .  S
C543        C720   1.482       .  S
C543        C544   1.417       .  A
C543        C548   1.404       .  A
C544        C687   1.469       .  S
C544        C545   1.399       .  A
C545        C546   1.397       .  A
C545        H550   1.085       .  S
C546        C547   1.412       .  A
C547        C548   1.400       .  A
C548        H549   1.084       .  S
C551        C759   1.483       .  S
C551       C1372   1.425       .  A
C551        C556   1.407       .  A
C552        C669   1.490       .  S
C552       C1371   1.425   1_455  A
C552        C553   1.408       .  A
C553        C554   1.398       .  A
C553        H558   1.084       .  S
C554       C1375   1.409   1_455  A
C555       C1374   1.409       .  A
C555        C556   1.397       .  A
C556        H557   1.084       .  S
C559        C738   1.476       .  S
C559        C560   1.424       .  A
C559        C564   1.406       .  A
C560        C648   1.494       .  S
C560        C561   1.407       .  A
C561        C562   1.399       .  A
C561        H566   1.083       .  S
C562        C563   1.409       .  A
C563        C564   1.395       .  A
C564        H565   1.084       .  S
C567        C795   1.496       .  S
C567        C572   1.409       .  A
C568        C633   1.481       .  S
C568        C569   1.408       .  A
C569        C570   1.398       .  A
C569        H574   1.084       .  S
C571        C572   1.398       .  A
C572        H573   1.083       .  S
C575        C813   1.467       .  S
C575        C580   1.402       .  A
C576        C612   1.489       .  S
C576        C577   1.406       .  A
C577        C578   1.404       .  A
C577        H582   1.084       .  S
C579        C580   1.398       .  A
C580        H581   1.085       .  S
Fe583       O599   2.075       .  S
Fe583       O589   2.062       .  S
Fe583       O596   2.067       .  S
Fe583       O588   2.093       .  S
Fe583       O594   1.953       .  S
Fe584       O587   2.076       .  S
Fe584       O591   2.072       .  S
Fe584       O595   2.064       .  S
Fe584       O600   2.065       .  S
Fe584       O594   1.950       .  S
Fe585       O603   2.062       .  S
Fe585       O590   2.079       .  S
Fe585       O597   2.076       .  S
Fe585       O586   2.070       .  S
Fe585       O594   1.952       .  S
O586        C593   1.272       .  A
O587        C601   1.272       .  A
O588        C593   1.275       .  A
O589        C592   1.266       .  A
O590        C602   1.268       .  A
O591        C604   1.270       .  A
C592        O597   1.269       .  A
C592        C702   1.468       .  S
C593        C666   1.472       .  S
O595        C598   1.270       .  A
O596        C598   1.272       .  A
C598        C630   1.468       .  S
O599        C604   1.271       .  A
O600        C602   1.266       .  A
C601        O603   1.271       .  A
C601        C684   1.464       .  S
C602        C651   1.469       .  S
C604        C615   1.477       .  S
C605        N611   1.345       .  A
C605        C610   1.383       .  A
C605        C606   1.404       .  A
C606        C607   1.403       .  A
C606        H617   1.082       .  S
C607        C616   1.377       .  A
C607        C608   1.384       .  A
C608        N614   1.347       .  A
C608        C609   1.406       .  A
C609        C610   1.406       .  A
C609        H618   1.082       .  S
C610        C613   1.379       .  A
N611        C612   1.357       .  A
N611        H621   1.044       .  S
C612        C613   1.399       .  A
C613        H619   1.079       .  S
N614        C615   1.357       .  A
N614        H622   1.045       .  S
C615        C616   1.396       .  A
C616        H620   1.082       .  S
C623        N629   1.340       .  A
C623        C628   1.385       .  A
C623        C624   1.402       .  A
C624        C625   1.400       .  A
C624        H635   1.082       .  S
C625        C634   1.377       .  A
C625        C626   1.384       .  A
C626        N632   1.341       .  A
C626        C627   1.404       .  A
C627        C628   1.402       .  A
C627        H636   1.082       .  S
C628        C631   1.380       .  A
N629        C630   1.355       .  A
N629        H639   1.045       .  S
C630        C631   1.395       .  A
C631        H637   1.082       .  S
N632        C633   1.357       .  A
N632        H640   1.045       .  S
C633        C634   1.396       .  A
C634        H638   1.082       .  S
C641        N647   1.344       .  A
C641        C646   1.382       .  A
C641        C642   1.404       .  A
C642        C643   1.404       .  A
C642        H653   1.082       .  S
C643        C652   1.378       .  A
C643        C644   1.385       .  A
C644        N650   1.345       .  A
C644        C645   1.404       .  A
C645        C646   1.404       .  A
C645        H654   1.082       .  S
C646        C649   1.377       .  A
N647        C648   1.359       .  A
N647        H657   1.044       .  S
C648        C649   1.400       .  A
C649        H655   1.082       .  S
N650        C651   1.355       .  A
N650        H658   1.045       .  S
C651        C652   1.395       .  A
C652        H656   1.083       .  S
C659        N665   1.347       .  A
C659        C664   1.385       .  A
C659        C660   1.405       .  A
C660        C661   1.405       .  A
C660        H671   1.082       .  S
C661        C670   1.377       .  A
C661        C662   1.383       .  A
C662        N668   1.346       .  A
C662        C663   1.404       .  A
C663        C664   1.405       .  A
C663        H672   1.082       .  S
C664        C667   1.378       .  A
N665        C666   1.356       .  A
N665        H675   1.045       .  S
C666        C667   1.395       .  A
C667        H673   1.082       .  S
N668        C669   1.358       .  A
N668       H1496   1.044       .  S
C669        C670   1.399       .  A
C670        H674   1.082       .  S
H676       N1488   1.044       .  S
C677        N683   1.340       .  A
C677        C682   1.385       .  A
C677        C678   1.402       .  A
C678        C679   1.400       .  A
C678        H689   1.082       .  S
C679        C688   1.377       .  A
C679        C680   1.385       .  A
C680        N686   1.341       .  A
C680        C681   1.402       .  A
C681        C682   1.401       .  A
C681        H690   1.082       .  S
C682        C685   1.378       .  A
N683        C684   1.354       .  A
N683        H693   1.045       .  S
C684        C685   1.394       .  A
C685        H691   1.082       .  S
N686        C687   1.353       .  A
N686        H694   1.044       .  S
C687        C688   1.392       .  A
C688        H692   1.082       .  S
C695        N701   1.345       .  A
C695        C700   1.385       .  A
C695        C696   1.404       .  A
C696        C697   1.404       .  A
C696        H707   1.082       .  S
C697        C706   1.378       .  A
C697        C698   1.385       .  A
C698        N704   1.342       .  A
C698        C699   1.401       .  A
C699        C700   1.401       .  A
C699        H708   1.082       .  S
C700        C703   1.374       .  A
N701        C702   1.355       .  A
N701        H711   1.045       .  S
C702        C703   1.394       .  A
C703        H709   1.083       .  S
N704        C705   1.353       .  A
N704        H712   1.044       .  S
C705        C706   1.395       .  A
C706        H710   1.081       .  S
C713        N719   1.342       .  A
C713        C718   1.383       .  A
C713        C714   1.402       .  A
C714        C715   1.402       .  A
C714        H725   1.082       .  S
C715        C724   1.375       .  A
C715        C716   1.385       .  A
C716        N722   1.344       .  A
C716        C717   1.402       .  A
C717        C718   1.402       .  A
C717        H726   1.082       .  S
C718        C721   1.374       .  A
N719        C720   1.356       .  A
N719        H729   1.045       .  S
C720        C721   1.397       .  A
C721        H727   1.077       .  S
N722        C723   1.355       .  A
N722        H730   1.045       .  S
C723        C724   1.396       .  A
C724        H728   1.083       .  S
C731        N737   1.339       .  A
C731        C736   1.384       .  A
C731        C732   1.401       .  A
C732        C733   1.399       .  A
C732        H743   1.083       .  S
C733        C742   1.375       .  A
C733        C734   1.385       .  A
C734        N740   1.341       .  A
C734        C735   1.402       .  A
C735        C736   1.400       .  A
C735        H744   1.082       .  S
C736        C739   1.376       .  A
N737        C738   1.355       .  A
N737        H747   1.045       .  S
C738        C739   1.396       .  A
C739        H745   1.082       .  S
N740        C741   1.355       .  A
N740        H748   1.046       .  S
C741        C742   1.394       .  A
C742        H746   1.082       .  S
C749        N755   1.345       .  A
C749        C754   1.385       .  A
C749        C750   1.403       .  A
C750        C751   1.403       .  A
C750        H761   1.082       .  S
C751        C760   1.376       .  A
C751        C752   1.384       .  A
C752        N758   1.343       .  A
C752        C753   1.401       .  A
C753        C754   1.402       .  A
C753        H762   1.082       .  S
C754        C757   1.375       .  A
N755        C756   1.355       .  A
N755        H765   1.045       .  S
C756        C757   1.395       .  A
C757        H763   1.083       .  S
N758        C759   1.356       .  A
N758        H766   1.044       .  S
C759        C760   1.398       .  A
C760        H764   1.082       .  S
C767        N773   1.341       .  A
C767        C772   1.384       .  A
C767        C768   1.402       .  A
C768        C769   1.400       .  A
C768        H779   1.082       .  S
C769        C778   1.376       .  A
C769        C770   1.383       .  A
C770        N776   1.345       .  A
C770        C771   1.407       .  A
C771        C772   1.406       .  A
C771        H780   1.082       .  S
C772        C775   1.383       .  A
N773        C774   1.355       .  A
N773        H783   1.045       .  S
C774        C775   1.398       .  A
C775        H781   1.082       .  S
N776        C777   1.358       .  A
N776        H784   1.042       .  S
C777        C778   1.394       .  A
C778        H782   1.082       .  S
C785        N791   1.344       .  A
C785        C790   1.385       .  A
C785        C786   1.402       .  A
C786        C787   1.402       .  A
C786        H797   1.082       .  S
C787        C796   1.375       .  A
C787        C788   1.382       .  A
C788        N794   1.347       .  A
C788        C789   1.406       .  A
C789        C790   1.407       .  A
C789        H798   1.082       .  S
C790        C793   1.381       .  A
N791        C792   1.354       .  A
N791        H801   1.045       .  S
C792        C793   1.397       .  A
C793        H799   1.082       .  S
N794        C795   1.360       .  A
N794        H802   1.044       .  S
C795        C796   1.399       .  A
C796        H800   1.082       .  S
C803        N809   1.342       .  A
C803        C808   1.385       .  A
C803        C804   1.401       .  A
C804        C805   1.400       .  A
C804        H815   1.082       .  S
C805        C814   1.375       .  A
C805        C806   1.385       .  A
C806        N812   1.342       .  A
C806        C807   1.401       .  A
C807        C808   1.401       .  A
C807        H816   1.082       .  S
C808        C811   1.375       .  A
N809        C810   1.353       .  A
N809        H819   1.045       .  S
C810        C811   1.394       .  A
C811        H817   1.083       .  S
N812        C813   1.353       .  A
N812        H820   1.044       .  S
C813        C814   1.392       .  A
C814        H818   1.082       .  S
Fe821       O837   2.069       .  S
Fe821       O827   2.082       .  S
Fe821       O834   2.069       .  S
Fe821       O826   2.059       .  S
Fe821       O832   1.967       .  S
Fe822       O825   2.057       .  S
Fe822       O829   2.068       .  S
Fe822       O833   2.067       .  S
Fe822       O838   2.060       .  S
Fe822       O832   1.967       .  S
Fe823       O841   2.060       .  S
Fe823       O828   2.075       .  S
Fe823       O835   2.066       .  S
Fe823       O824   2.071       .  S
Fe823       O832   1.964       .  S
O824        C831   1.270       .  A
O825        C839   1.266       .  A
O826        C831   1.269       .  A
O827        C830   1.269       .  A
O828        C840   1.273       .  A
O829        C842   1.272       .  A
C830        O835   1.267       .  A
C830       C1202   1.471       .  S
C831       C1220   1.463       .  S
O833        C836   1.266       .  A
O834        C836   1.267       .  A
C836       C1184   1.475       .  S
O837        C842   1.273       .  A
O838        C840   1.269       .  A
C839        O841   1.266       .  A
C839       C1151   1.465       .  S
C840       C1133   1.470       .  S
C842       C1166   1.470       .  S
N843        C848   1.352       .  A
N843        C847   1.351   1_556  A
N843        H875   1.040       .  S
N844        C851   1.349       .  A
N844        C852   1.349       .  A
N845        C850   1.351   1_554  A
N845        C849   1.352       .  A
N845        H876   1.041       .  S
N846        C853   1.347       .  A
N846        C854   1.346       .  A
C847        C855   1.386       .  A
C847        C863   1.411       .  A
C848        C864   1.410       .  A
C848        C856   1.385       .  A
C849        C857   1.386       .  A
C849        C866   1.411       .  A
C850        C865   1.410       .  A
C850        C858   1.385       .  A
C851        C863   1.411       .  A
C851        C859   1.386       .  A
C852        C866   1.411       .  A
C852        C860   1.386       .  A
C853        C861   1.386       .  A
C853        C864   1.407       .  A
C854        C862   1.386       .  A
C854        C865   1.407       .  A
C855        C856   1.378   1_554  A
C855        H867   1.082       .  S
C856        H868   1.082       .  S
C857        C858   1.380   1_554  A
C857        H869   1.082       .  S
C858        H870   1.082       .  S
C859        C860   1.379       .  A
C859        H871   1.082       .  S
C860        H872   1.082       .  S
C861        C862   1.377       .  A
C861        H873   1.081       .  S
C862        H874   1.082       .  S
C863        C949   1.488       .  S
C864        C964   1.485       .  S
C865        C981   1.483       .  S
C866        C989   1.489       .  S
N877        C882   1.351   1_556  A
N877        C881   1.352       .  A
N877        H909   1.041   1_556  S
N878       C1295   1.347       .  A
N878        C886   1.347       .  A
N879        C884   1.349       .  A
N879        C883   1.350   1_554  A
N879        H910   1.042       .  S
N880       C1297   1.348       .  A
N880        C888   1.348       .  A
C881        C889   1.385       .  A
C881        C897   1.410       .  A
C882        C898   1.411       .  A
C882        C890   1.386       .  A
C883        C891   1.385       .  A
C883        C900   1.407       .  A
C884        C899   1.409       .  A
C884        C892   1.387       .  A
C885       N1288   1.347   1_545  A
C885        C897   1.406       .  A
C885        C893   1.386       .  A
C886        C900   1.405       .  A
C886        C894   1.385       .  A
C887       N1290   1.348       .  A
C887        C895   1.386       .  A
C887        C898   1.410       .  A
C888        C896   1.386       .  A
C888        C899   1.409       .  A
C889        C890   1.378   1_556  A
C889        H901   1.082       .  S
C890        H902   1.082       .  S
C891        C892   1.378   1_556  A
C891        H903   1.082       .  S
C892        H904   1.082       .  S
C893       C1304   1.376   1_545  A
C893        H905   1.081       .  S
C894       C1303   1.376       .  A
C894        H906   1.082       .  S
C895       C1306   1.379   1_545  A
C895        H907   1.082       .  S
C896       C1305   1.379       .  A
C896        H908   1.082       .  S
C897        C965   1.485       .  S
C898        C948   1.487       .  S
C899        C956   1.482       .  S
C900        C972   1.479       .  S
N911        C916   1.352       .  A
N911        C915   1.353   1_554  A
N911        H943   1.041       .  S
N912        C919   1.349       .  A
N913        C918   1.351       .  A
N913        C917   1.351   1_554  A
N913        H944   1.042       .  S
N914        C921   1.348       .  A
C915        C923   1.386       .  A
C915        C931   1.413       .  A
C916        C932   1.412       .  A
C916        C924   1.386       .  A
C917        C925   1.385       .  A
C917        C934   1.410       .  A
C918        C933   1.410       .  A
C918        C926   1.386       .  A
C919        C931   1.411       .  A
C919        C927   1.386       .  A
C920        C934   1.410       .  A
C920        C928   1.385       .  A
C921        C929   1.386       .  A
C921        C932   1.409       .  A
C922        C930   1.386       .  A
C922        C933   1.408       .  A
C923        C924   1.379   1_556  A
C923        H935   1.082       .  S
C924        H936   1.082       .  S
C925        C926   1.378   1_556  A
C925        H937   1.082       .  S
C926        H938   1.082       .  S
C927        H939   1.082       .  S
C928        H940   1.082       .  S
C929        H941   1.082       .  S
C930        H942   1.082       .  S
C931        C980   1.490       .  S
C932        C988   1.486       .  S
C933        C957   1.485       .  S
C934        C973   1.489       .  S
C945       C1115   1.473       .  S
C945        C950   1.404       .  A
C946       C1187   1.484       .  S
C946        C947   1.405       .  A
C947        C948   1.401       .  A
C947        H952   1.084       .  S
C949        C950   1.401       .  A
C950        H951   1.084       .  S
C953       C1130   1.482       .  S
C953        C954   1.417       .  A
C953        C958   1.404       .  A
C954       C1097   1.469       .  S
C954        C955   1.399       .  A
C955        C956   1.397       .  A
C955        H960   1.085       .  S
C956        C957   1.412       .  A
C957        C958   1.400       .  A
C958        H959   1.084       .  S
C961       C1169   1.483       .  S
C961        C966   1.407       .  A
C962       C1079   1.490       .  S
C962        C963   1.408       .  A
C963        C964   1.398       .  A
C963        H968   1.084       .  S
C965        C966   1.397       .  A
C966        H967   1.084       .  S
C969       C1148   1.476       .  S
C969        C970   1.424       .  A
C969        C974   1.406       .  A
C970       C1058   1.494       .  S
C970        C971   1.407       .  A
C971        C972   1.399       .  A
C971        H976   1.083       .  S
C972        C973   1.409       .  A
C973        C974   1.395       .  A
C974        H975   1.084       .  S
C977       C1205   1.496       .  S
C977       C1388   1.426   1_545  A
C977        C982   1.409       .  A
C978       C1043   1.481       .  S
C978       C1387   1.426       .  A
C978        C979   1.408       .  A
C979        C980   1.398       .  A
C979        H984   1.084       .  S
C980       C1391   1.409       .  A
C981       C1390   1.409   1_545  A
C981        C982   1.398       .  A
C982        H983   1.083       .  S
C985       C1223   1.467       .  S
C985       C1396   1.417   1_545  A
C985        C990   1.402       .  A
C986       C1022   1.489       .  S
C986       C1395   1.417       .  A
C986        C987   1.406       .  A
C987        C988   1.404       .  A
C987        H992   1.084       .  S
C988       C1399   1.414       .  A
C989       C1398   1.414   1_545  A
C989        C990   1.398       .  A
C990        H991   1.085       .  S
Fe993      O1009   2.075       .  S
Fe993       O999   2.062       .  S
Fe993      O1006   2.067       .  S
Fe993       O998   2.093       .  S
Fe993      O1004   1.953       .  S
Fe994       O997   2.076       .  S
Fe994      O1001   2.072       .  S
Fe994      O1005   2.064       .  S
Fe994      O1010   2.065       .  S
Fe994      O1004   1.950       .  S
Fe995      O1013   2.062       .  S
Fe995      O1000   2.079       .  S
Fe995      O1007   2.076       .  S
Fe995       O996   2.070       .  S
Fe995      O1004   1.952       .  S
O996       C1003   1.272       .  A
O997       C1011   1.272       .  A
O998       C1003   1.275       .  A
O999       C1002   1.266       .  A
O1000      C1012   1.268       .  A
O1001      C1014   1.270       .  A
C1002      O1007   1.269       .  A
C1002      C1112   1.468       .  S
C1003      C1076   1.472       .  S
O1005      C1008   1.270       .  A
O1006      C1008   1.272       .  A
C1008      C1040   1.468       .  S
O1009      C1014   1.271       .  A
O1010      C1012   1.266       .  A
C1011      O1013   1.271       .  A
C1011      C1094   1.464       .  S
C1012      C1061   1.469       .  S
C1014      C1025   1.477       .  S
C1015      N1021   1.345       .  A
C1015      C1020   1.383       .  A
C1015      C1016   1.404       .  A
C1016      C1017   1.403       .  A
C1016      H1027   1.082       .  S
C1017      C1026   1.377       .  A
C1017      C1018   1.384       .  A
C1018      N1024   1.347       .  A
C1018      C1019   1.406       .  A
C1019      C1020   1.406       .  A
C1019      H1028   1.082       .  S
C1020      C1023   1.379       .  A
N1021      C1022   1.357       .  A
N1021      H1031   1.044       .  S
C1022      C1023   1.399       .  A
C1023      H1029   1.079       .  S
N1024      C1025   1.357       .  A
N1024      H1032   1.045       .  S
C1025      C1026   1.396       .  A
C1026      H1030   1.082       .  S
C1033      N1039   1.340       .  A
C1033      C1038   1.385       .  A
C1033      C1034   1.402       .  A
C1034      C1035   1.400       .  A
C1034      H1045   1.082       .  S
C1035      C1044   1.377       .  A
C1035      C1036   1.384       .  A
C1036      N1042   1.341       .  A
C1036      C1037   1.404       .  A
C1037      C1038   1.402       .  A
C1037      H1046   1.082       .  S
C1038      C1041   1.380       .  A
N1039      C1040   1.355       .  A
N1039      H1049   1.045       .  S
C1040      C1041   1.395       .  A
C1041      H1047   1.082       .  S
N1042      C1043   1.357       .  A
N1042      H1050   1.045       .  S
C1043      C1044   1.396       .  A
C1044      H1048   1.082       .  S
C1051      N1057   1.344       .  A
C1051      C1056   1.382       .  A
C1051      C1052   1.404       .  A
C1052      C1053   1.404       .  A
C1052      H1063   1.082       .  S
C1053      C1062   1.378       .  A
C1053      C1054   1.385       .  A
C1054      N1060   1.345       .  A
C1054      C1055   1.404       .  A
C1055      C1056   1.404       .  A
C1055      H1064   1.082       .  S
C1056      C1059   1.377       .  A
N1057      C1058   1.359       .  A
N1057      H1067   1.044       .  S
C1058      C1059   1.400       .  A
C1059      H1065   1.082       .  S
N1060      C1061   1.355       .  A
N1060      H1068   1.045       .  S
C1061      C1062   1.395       .  A
C1062      H1066   1.083       .  S
C1069      N1075   1.347       .  A
C1069      C1074   1.385       .  A
C1069      C1070   1.405       .  A
C1070      C1071   1.405       .  A
C1070      H1081   1.082       .  S
C1071      C1080   1.377       .  A
C1071      C1072   1.383       .  A
C1072      N1078   1.346       .  A
C1072      C1073   1.404       .  A
C1073      C1074   1.405       .  A
C1073      H1082   1.082       .  S
C1074      C1077   1.378       .  A
N1075      C1076   1.356       .  A
N1075      H1085   1.045       .  S
C1076      C1077   1.395       .  A
C1077      H1083   1.082       .  S
N1078      C1079   1.358       .  A
C1079      C1080   1.399       .  A
C1080      H1084   1.082       .  S
C1087      N1093   1.340       .  A
C1087      C1092   1.385       .  A
C1087      C1088   1.402       .  A
C1088      C1089   1.400       .  A
C1088      H1099   1.082       .  S
C1089      C1098   1.377       .  A
C1089      C1090   1.385       .  A
C1090      N1096   1.341       .  A
C1090      C1091   1.402       .  A
C1091      C1092   1.401       .  A
C1091      H1100   1.082       .  S
C1092      C1095   1.378       .  A
N1093      C1094   1.354       .  A
N1093      H1103   1.045       .  S
C1094      C1095   1.394       .  A
C1095      H1101   1.082       .  S
N1096      C1097   1.353       .  A
N1096      H1104   1.044       .  S
C1097      C1098   1.392       .  A
C1098      H1102   1.082       .  S
C1105      N1111   1.345       .  A
C1105      C1110   1.385       .  A
C1105      C1106   1.404       .  A
C1106      C1107   1.404       .  A
C1106      H1117   1.082       .  S
C1107      C1116   1.378       .  A
C1107      C1108   1.385       .  A
C1108      N1114   1.342       .  A
C1108      C1109   1.401       .  A
C1109      C1110   1.401       .  A
C1109      H1118   1.082       .  S
C1110      C1113   1.374       .  A
N1111      C1112   1.355       .  A
N1111      H1121   1.045       .  S
C1112      C1113   1.394       .  A
C1113      H1119   1.083       .  S
N1114      C1115   1.353       .  A
N1114      H1122   1.044       .  S
C1115      C1116   1.395       .  A
C1116      H1120   1.081       .  S
C1123      N1129   1.342       .  A
C1123      C1128   1.383       .  A
C1123      C1124   1.402       .  A
C1124      C1125   1.402       .  A
C1124      H1135   1.082       .  S
C1125      C1134   1.375       .  A
C1125      C1126   1.385       .  A
C1126      N1132   1.344       .  A
C1126      C1127   1.402       .  A
C1127      C1128   1.402       .  A
C1127      H1136   1.082       .  S
C1128      C1131   1.374       .  A
N1129      C1130   1.356       .  A
N1129      H1139   1.045       .  S
C1130      C1131   1.397       .  A
C1131      H1137   1.077       .  S
N1132      C1133   1.355       .  A
N1132      H1140   1.045       .  S
C1133      C1134   1.396       .  A
C1134      H1138   1.083       .  S
C1141      N1147   1.339       .  A
C1141      C1146   1.384       .  A
C1141      C1142   1.401       .  A
C1142      C1143   1.399       .  A
C1142      H1153   1.083       .  S
C1143      C1152   1.375       .  A
C1143      C1144   1.385       .  A
C1144      N1150   1.341       .  A
C1144      C1145   1.402       .  A
C1145      C1146   1.400       .  A
C1145      H1154   1.082       .  S
C1146      C1149   1.376       .  A
N1147      C1148   1.355       .  A
N1147      H1157   1.045       .  S
C1148      C1149   1.396       .  A
C1149      H1155   1.082       .  S
N1150      C1151   1.355       .  A
N1150      H1158   1.046       .  S
C1151      C1152   1.394       .  A
C1152      H1156   1.082       .  S
C1159      N1165   1.345       .  A
C1159      C1164   1.385       .  A
C1159      C1160   1.403       .  A
C1160      C1161   1.403       .  A
C1160      H1171   1.082       .  S
C1161      C1170   1.376       .  A
C1161      C1162   1.384       .  A
C1162      N1168   1.343       .  A
C1162      C1163   1.401       .  A
C1163      C1164   1.402       .  A
C1163      H1172   1.082       .  S
C1164      C1167   1.375       .  A
N1165      C1166   1.355       .  A
N1165      H1175   1.045       .  S
C1166      C1167   1.395       .  A
C1167      H1173   1.083       .  S
N1168      C1169   1.356       .  A
N1168      H1176   1.044       .  S
C1169      C1170   1.398       .  A
C1170      H1174   1.082       .  S
C1177      N1183   1.341       .  A
C1177      C1182   1.384       .  A
C1177      C1178   1.402       .  A
C1178      C1179   1.400       .  A
C1178      H1189   1.082       .  S
C1179      C1188   1.376       .  A
C1179      C1180   1.383       .  A
C1180      N1186   1.345       .  A
C1180      C1181   1.407       .  A
C1181      C1182   1.406       .  A
C1181      H1190   1.082       .  S
C1182      C1185   1.383       .  A
N1183      C1184   1.355       .  A
N1183      H1193   1.045       .  S
C1184      C1185   1.398       .  A
C1185      H1191   1.082       .  S
N1186      C1187   1.358       .  A
N1186      H1194   1.042       .  S
C1187      C1188   1.394       .  A
C1188      H1192   1.082       .  S
C1195      N1201   1.344       .  A
C1195      C1200   1.385       .  A
C1195      C1196   1.402       .  A
C1196      C1197   1.402       .  A
C1196      H1207   1.082       .  S
C1197      C1206   1.375       .  A
C1197      C1198   1.382       .  A
C1198      N1204   1.347       .  A
C1198      C1199   1.406       .  A
C1199      C1200   1.407       .  A
C1199      H1208   1.082       .  S
C1200      C1203   1.381       .  A
N1201      C1202   1.354       .  A
N1201      H1211   1.045       .  S
C1202      C1203   1.397       .  A
C1203      H1209   1.082       .  S
N1204      C1205   1.360       .  A
N1204      H1212   1.044       .  S
C1205      C1206   1.399       .  A
C1206      H1210   1.082       .  S
C1213      N1219   1.342       .  A
C1213      C1218   1.385       .  A
C1213      C1214   1.401       .  A
C1214      C1215   1.400       .  A
C1214      H1225   1.082       .  S
C1215      C1224   1.375       .  A
C1215      C1216   1.385       .  A
C1216      N1222   1.342       .  A
C1216      C1217   1.401       .  A
C1217      C1218   1.401       .  A
C1217      H1226   1.082       .  S
C1218      C1221   1.375       .  A
N1219      C1220   1.353       .  A
N1219      H1229   1.045       .  S
C1220      C1221   1.394       .  A
C1221      H1227   1.083       .  S
N1222      C1223   1.353       .  A
N1222      H1230   1.044       .  S
C1223      C1224   1.392       .  A
C1224      H1228   1.082       .  S
Fe1231     O1247   2.069       .  S
Fe1231     O1237   2.082       .  S
Fe1231     O1244   2.069       .  S
Fe1231     O1236   2.059       .  S
Fe1231     O1242   1.967       .  S
Fe1232     O1235   2.057       .  S
Fe1232     O1239   2.068       .  S
Fe1232     O1243   2.067       .  S
Fe1232     O1248   2.060       .  S
Fe1232     O1242   1.967       .  S
Fe1233     O1251   2.060       .  S
Fe1233     O1238   2.075       .  S
Fe1233     O1245   2.066       .  S
Fe1233     O1234   2.071       .  S
Fe1233     O1242   1.964       .  S
O1234      C1241   1.270       .  A
O1235      C1249   1.266       .  A
O1236      C1241   1.269       .  A
O1237      C1240   1.269       .  A
O1238      C1250   1.273       .  A
O1239      C1252   1.272       .  A
C1240      O1245   1.267       .  A
C1240      C1612   1.471       .  S
C1241      C1630   1.463       .  S
O1243      C1246   1.266       .  A
O1244      C1246   1.267       .  A
C1246      C1594   1.475       .  S
O1247      C1252   1.273       .  A
O1248      C1250   1.269       .  A
C1249      O1251   1.266       .  A
C1249      C1561   1.465       .  S
C1250      C1543   1.470       .  S
C1252      C1576   1.470       .  S
N1253      C1258   1.352       .  A
N1253      C1257   1.351   1_556  A
N1253      H1285   1.040       .  S
N1254      C1261   1.349       .  A
N1254      C1262   1.349       .  A
N1255      C1260   1.351   1_554  A
N1255      C1259   1.352       .  A
N1255      H1286   1.041       .  S
N1256      C1263   1.347       .  A
N1256      C1264   1.346       .  A
C1257      C1265   1.386       .  A
C1257      C1273   1.411       .  A
C1258      C1274   1.410       .  A
C1258      C1266   1.385       .  A
C1259      C1267   1.386       .  A
C1259      C1276   1.411       .  A
C1260      C1275   1.410       .  A
C1260      C1268   1.385       .  A
C1261      C1273   1.411       .  A
C1261      C1269   1.386       .  A
C1262      C1276   1.411       .  A
C1262      C1270   1.386       .  A
C1263      C1271   1.386       .  A
C1263      C1274   1.407       .  A
C1264      C1272   1.386       .  A
C1264      C1275   1.407       .  A
C1265      C1266   1.378   1_554  A
C1265      H1277   1.082       .  S
C1266      H1278   1.082       .  S
C1267      C1268   1.380   1_554  A
C1267      H1279   1.082       .  S
C1268      H1280   1.082       .  S
C1269      C1270   1.379       .  A
C1269      H1281   1.082       .  S
C1270      H1282   1.082       .  S
C1271      C1272   1.377       .  A
C1271      H1283   1.081       .  S
C1272      H1284   1.082       .  S
C1273      C1359   1.488       .  S
C1274      C1374   1.485       .  S
C1275      C1391   1.483       .  S
C1276      C1399   1.489       .  S
N1287      C1292   1.351   1_556  A
N1287      C1291   1.352       .  A
N1287      H1319   1.041   1_556  S
N1288      C1296   1.347       .  A
N1289      C1294   1.349       .  A
N1289      C1293   1.350   1_554  A
N1289      H1320   1.042       .  S
N1290      C1298   1.348   1_545  A
C1291      C1299   1.385       .  A
C1291      C1307   1.410       .  A
C1292      C1308   1.411       .  A
C1292      C1300   1.386       .  A
C1293      C1301   1.385       .  A
C1293      C1310   1.407       .  A
C1294      C1309   1.409       .  A
C1294      C1302   1.387       .  A
C1295      C1307   1.406       .  A
C1295      C1303   1.386       .  A
C1296      C1310   1.405       .  A
C1296      C1304   1.385       .  A
C1297      C1305   1.386       .  A
C1297      C1308   1.410       .  A
C1298      C1306   1.386       .  A
C1298      C1309   1.409       .  A
C1299      C1300   1.378   1_556  A
C1299      H1311   1.082       .  S
C1300      H1312   1.082       .  S
C1301      C1302   1.378   1_556  A
C1301      H1313   1.082       .  S
C1302      H1314   1.082       .  S
C1303      H1315   1.081       .  S
C1304      H1316   1.082       .  S
C1305      H1317   1.082       .  S
C1306      H1318   1.082       .  S
C1307      C1375   1.485       .  S
C1308      C1358   1.487       .  S
C1309      C1366   1.482       .  S
C1310      C1382   1.479       .  S
N1321      C1326   1.352       .  A
N1321      C1325   1.353   1_554  A
N1321      H1353   1.041       .  S
N1322      C1329   1.349       .  A
N1323      C1328   1.351       .  A
N1323      C1327   1.351   1_554  A
N1323      H1354   1.042       .  S
N1324      C1331   1.348       .  A
C1325      C1333   1.386       .  A
C1325      C1341   1.413       .  A
C1326      C1342   1.412       .  A
C1326      C1334   1.386       .  A
C1327      C1335   1.385       .  A
C1327      C1344   1.410       .  A
C1328      C1343   1.410       .  A
C1328      C1336   1.386       .  A
C1329      C1341   1.411       .  A
C1329      C1337   1.386       .  A
C1330      C1344   1.410       .  A
C1330      C1338   1.385       .  A
C1331      C1339   1.386       .  A
C1331      C1342   1.409       .  A
C1332      C1340   1.386       .  A
C1332      C1343   1.408       .  A
C1333      C1334   1.379   1_556  A
C1333      H1345   1.082       .  S
C1334      H1346   1.082       .  S
C1335      C1336   1.378   1_556  A
C1335      H1347   1.082       .  S
C1336      H1348   1.082       .  S
C1337      H1349   1.082       .  S
C1338      H1350   1.082       .  S
C1339      H1351   1.082       .  S
C1340      H1352   1.082       .  S
C1341      C1390   1.490       .  S
C1342      C1398   1.486       .  S
C1343      C1367   1.485       .  S
C1344      C1383   1.489       .  S
C1355      C1525   1.473       .  S
C1355      C1360   1.404       .  A
C1356      C1597   1.484       .  S
C1356      C1357   1.405       .  A
C1357      C1358   1.401       .  A
C1357      H1362   1.084       .  S
C1359      C1360   1.401       .  A
C1360      H1361   1.084       .  S
C1363      C1540   1.482       .  S
C1363      C1364   1.417       .  A
C1363      C1368   1.404       .  A
C1364      C1507   1.469       .  S
C1364      C1365   1.399       .  A
C1365      C1366   1.397       .  A
C1365      H1370   1.085       .  S
C1366      C1367   1.412       .  A
C1367      C1368   1.400       .  A
C1368      H1369   1.084       .  S
C1371      C1579   1.483       .  S
C1371      C1376   1.407       .  A
C1372      C1489   1.490       .  S
C1372      C1373   1.408       .  A
C1373      C1374   1.398       .  A
C1373      H1378   1.084       .  S
C1375      C1376   1.397       .  A
C1376      H1377   1.084       .  S
C1379      C1558   1.476       .  S
C1379      C1380   1.424       .  A
C1379      C1384   1.406       .  A
C1380      C1468   1.494       .  S
C1380      C1381   1.407       .  A
C1381      C1382   1.399       .  A
C1381      H1386   1.083       .  S
C1382      C1383   1.409       .  A
C1383      C1384   1.395       .  A
C1384      H1385   1.084       .  S
C1387      C1615   1.496       .  S
C1387      C1392   1.409       .  A
C1388      C1453   1.481       .  S
C1388      C1389   1.408       .  A
C1389      C1390   1.398       .  A
C1389      H1394   1.084       .  S
C1391      C1392   1.398       .  A
C1392      H1393   1.083       .  S
C1395      C1633   1.467       .  S
C1395      C1400   1.402       .  A
C1396      C1432   1.489       .  S
C1396      C1397   1.406       .  A
C1397      C1398   1.404       .  A
C1397      H1402   1.084       .  S
C1399      C1400   1.398       .  A
C1400      H1401   1.085       .  S
Fe1403     O1419   2.075       .  S
Fe1403     O1409   2.062       .  S
Fe1403     O1416   2.067       .  S
Fe1403     O1408   2.093       .  S
Fe1403     O1414   1.953       .  S
Fe1404     O1407   2.076       .  S
Fe1404     O1411   2.072       .  S
Fe1404     O1415   2.064       .  S
Fe1404     O1420   2.065       .  S
Fe1404     O1414   1.950       .  S
Fe1405     O1423   2.062       .  S
Fe1405     O1410   2.079       .  S
Fe1405     O1417   2.076       .  S
Fe1405     O1406   2.070       .  S
Fe1405     O1414   1.952       .  S
O1406      C1413   1.272       .  A
O1407      C1421   1.272       .  A
O1408      C1413   1.275       .  A
O1409      C1412   1.266       .  A
O1410      C1422   1.268       .  A
O1411      C1424   1.270       .  A
C1412      O1417   1.269       .  A
C1412      C1522   1.468       .  S
C1413      C1486   1.472       .  S
O1415      C1418   1.270       .  A
O1416      C1418   1.272       .  A
C1418      C1450   1.468       .  S
O1419      C1424   1.271       .  A
O1420      C1422   1.266       .  A
C1421      O1423   1.271       .  A
C1421      C1504   1.464       .  S
C1422      C1471   1.469       .  S
C1424      C1435   1.477       .  S
C1425      N1431   1.345       .  A
C1425      C1430   1.383       .  A
C1425      C1426   1.404       .  A
C1426      C1427   1.403       .  A
C1426      H1437   1.082       .  S
C1427      C1436   1.377       .  A
C1427      C1428   1.384       .  A
C1428      N1434   1.347       .  A
C1428      C1429   1.406       .  A
C1429      C1430   1.406       .  A
C1429      H1438   1.082       .  S
C1430      C1433   1.379       .  A
N1431      C1432   1.357       .  A
N1431      H1441   1.044       .  S
C1432      C1433   1.399       .  A
C1433      H1439   1.079       .  S
N1434      C1435   1.357       .  A
N1434      H1442   1.045       .  S
C1435      C1436   1.396       .  A
C1436      H1440   1.082       .  S
C1443      N1449   1.340       .  A
C1443      C1448   1.385       .  A
C1443      C1444   1.402       .  A
C1444      C1445   1.400       .  A
C1444      H1455   1.082       .  S
C1445      C1454   1.377       .  A
C1445      C1446   1.384       .  A
C1446      N1452   1.341       .  A
C1446      C1447   1.404       .  A
C1447      C1448   1.402       .  A
C1447      H1456   1.082       .  S
C1448      C1451   1.380       .  A
N1449      C1450   1.355       .  A
N1449      H1459   1.045       .  S
C1450      C1451   1.395       .  A
C1451      H1457   1.082       .  S
N1452      C1453   1.357       .  A
N1452      H1460   1.045       .  S
C1453      C1454   1.396       .  A
C1454      H1458   1.082       .  S
C1461      N1467   1.344       .  A
C1461      C1466   1.382       .  A
C1461      C1462   1.404       .  A
C1462      C1463   1.404       .  A
C1462      H1473   1.082       .  S
C1463      C1472   1.378       .  A
C1463      C1464   1.385       .  A
C1464      N1470   1.345       .  A
C1464      C1465   1.404       .  A
C1465      C1466   1.404       .  A
C1465      H1474   1.082       .  S
C1466      C1469   1.377       .  A
N1467      C1468   1.359       .  A
N1467      H1477   1.044       .  S
C1468      C1469   1.400       .  A
C1469      H1475   1.082       .  S
N1470      C1471   1.355       .  A
N1470      H1478   1.045       .  S
C1471      C1472   1.395       .  A
C1472      H1476   1.083       .  S
C1479      N1485   1.347       .  A
C1479      C1484   1.385       .  A
C1479      C1480   1.405       .  A
C1480      C1481   1.405       .  A
C1480      H1491   1.082       .  S
C1481      C1490   1.377       .  A
C1481      C1482   1.383       .  A
C1482      N1488   1.346       .  A
C1482      C1483   1.404       .  A
C1483      C1484   1.405       .  A
C1483      H1492   1.082       .  S
C1484      C1487   1.378       .  A
N1485      C1486   1.356       .  A
N1485      H1495   1.045       .  S
C1486      C1487   1.395       .  A
C1487      H1493   1.082       .  S
N1488      C1489   1.358       .  A
C1489      C1490   1.399       .  A
C1490      H1494   1.082       .  S
C1497      N1503   1.340       .  A
C1497      C1502   1.385       .  A
C1497      C1498   1.402       .  A
C1498      C1499   1.400       .  A
C1498      H1509   1.082       .  S
C1499      C1508   1.377       .  A
C1499      C1500   1.385       .  A
C1500      N1506   1.341       .  A
C1500      C1501   1.402       .  A
C1501      C1502   1.401       .  A
C1501      H1510   1.082       .  S
C1502      C1505   1.378       .  A
N1503      C1504   1.354       .  A
N1503      H1513   1.045       .  S
C1504      C1505   1.394       .  A
C1505      H1511   1.082       .  S
N1506      C1507   1.353       .  A
N1506      H1514   1.044       .  S
C1507      C1508   1.392       .  A
C1508      H1512   1.082       .  S
C1515      N1521   1.345       .  A
C1515      C1520   1.385       .  A
C1515      C1516   1.404       .  A
C1516      C1517   1.404       .  A
C1516      H1527   1.082       .  S
C1517      C1526   1.378       .  A
C1517      C1518   1.385       .  A
C1518      N1524   1.342       .  A
C1518      C1519   1.401       .  A
C1519      C1520   1.401       .  A
C1519      H1528   1.082       .  S
C1520      C1523   1.374       .  A
N1521      C1522   1.355       .  A
N1521      H1531   1.045       .  S
C1522      C1523   1.394       .  A
C1523      H1529   1.083       .  S
N1524      C1525   1.353       .  A
N1524      H1532   1.044       .  S
C1525      C1526   1.395       .  A
C1526      H1530   1.081       .  S
C1533      N1539   1.342       .  A
C1533      C1538   1.383       .  A
C1533      C1534   1.402       .  A
C1534      C1535   1.402       .  A
C1534      H1545   1.082       .  S
C1535      C1544   1.375       .  A
C1535      C1536   1.385       .  A
C1536      N1542   1.344       .  A
C1536      C1537   1.402       .  A
C1537      C1538   1.402       .  A
C1537      H1546   1.082       .  S
C1538      C1541   1.374       .  A
N1539      C1540   1.356       .  A
N1539      H1549   1.045       .  S
C1540      C1541   1.397       .  A
C1541      H1547   1.077       .  S
N1542      C1543   1.355       .  A
N1542      H1550   1.045       .  S
C1543      C1544   1.396       .  A
C1544      H1548   1.083       .  S
C1551      N1557   1.339       .  A
C1551      C1556   1.384       .  A
C1551      C1552   1.401       .  A
C1552      C1553   1.399       .  A
C1552      H1563   1.083       .  S
C1553      C1562   1.375       .  A
C1553      C1554   1.385       .  A
C1554      N1560   1.341       .  A
C1554      C1555   1.402       .  A
C1555      C1556   1.400       .  A
C1555      H1564   1.082       .  S
C1556      C1559   1.376       .  A
N1557      C1558   1.355       .  A
N1557      H1567   1.045       .  S
C1558      C1559   1.396       .  A
C1559      H1565   1.082       .  S
N1560      C1561   1.355       .  A
N1560      H1568   1.045       .  S
C1561      C1562   1.394       .  A
C1562      H1566   1.082       .  S
C1569      N1575   1.345       .  A
C1569      C1574   1.385       .  A
C1569      C1570   1.403       .  A
C1570      C1571   1.403       .  A
C1570      H1581   1.082       .  S
C1571      C1580   1.376       .  A
C1571      C1572   1.384       .  A
C1572      N1578   1.343       .  A
C1572      C1573   1.401       .  A
C1573      C1574   1.402       .  A
C1573      H1582   1.082       .  S
C1574      C1577   1.375       .  A
N1575      C1576   1.355       .  A
N1575      H1585   1.045       .  S
C1576      C1577   1.395       .  A
C1577      H1583   1.083       .  S
N1578      C1579   1.356       .  A
N1578      H1586   1.044       .  S
C1579      C1580   1.398       .  A
C1580      H1584   1.082       .  S
C1587      N1593   1.341       .  A
C1587      C1592   1.384       .  A
C1587      C1588   1.402       .  A
C1588      C1589   1.400       .  A
C1588      H1599   1.082       .  S
C1589      C1598   1.376       .  A
C1589      C1590   1.383       .  A
C1590      N1596   1.345       .  A
C1590      C1591   1.407       .  A
C1591      C1592   1.406       .  A
C1591      H1600   1.082       .  S
C1592      C1595   1.383       .  A
N1593      C1594   1.355       .  A
N1593      H1603   1.045       .  S
C1594      C1595   1.398       .  A
C1595      H1601   1.082       .  S
N1596      C1597   1.358       .  A
N1596      H1604   1.042       .  S
C1597      C1598   1.394       .  A
C1598      H1602   1.082       .  S
C1605      N1611   1.344       .  A
C1605      C1610   1.385       .  A
C1605      C1606   1.402       .  A
C1606      C1607   1.402       .  A
C1606      H1617   1.082       .  S
C1607      C1616   1.375       .  A
C1607      C1608   1.382       .  A
C1608      N1614   1.347       .  A
C1608      C1609   1.406       .  A
C1609      C1610   1.407       .  A
C1609      H1618   1.082       .  S
C1610      C1613   1.381       .  A
N1611      C1612   1.354       .  A
N1611      H1621   1.045       .  S
C1612      C1613   1.397       .  A
C1613      H1619   1.082       .  S
N1614      C1615   1.360       .  A
N1614      H1622   1.044       .  S
C1615      C1616   1.399       .  A
C1616      H1620   1.082       .  S
C1623      N1629   1.342       .  A
C1623      C1628   1.385       .  A
C1623      C1624   1.401       .  A
C1624      C1625   1.400       .  A
C1624      H1635   1.082       .  S
C1625      C1634   1.375       .  A
C1625      C1626   1.385       .  A
C1626      N1632   1.342       .  A
C1626      C1627   1.401       .  A
C1627      C1628   1.401       .  A
C1627      H1636   1.082       .  S
C1628      C1631   1.375       .  A
N1629      C1630   1.353       .  A
N1629      H1639   1.045       .  S
C1630      C1631   1.394       .  A
C1631      H1637   1.083       .  S
N1632      C1633   1.353       .  A
N1632      H1640   1.044       .  S
C1633      C1634   1.392       .  A
C1634      H1638   1.082       .  S
