geometry optimzed in LAMMPS
_audit_creation_date              2020-11-30 
_audit_creation_method            'lammps2cif' 
_symmetry_space_group_name_H-M    'P1' 
_symmetry_Int_Tables_number       1 
_symmetry_cell_setting            triclinic 
loop_ 
_symmetry_equiv_pos_as_xyz 
  x,y,z 
_cell_length_a                    29.30233881 
_cell_length_b                    28.43466692703173 
_cell_length_c                    28.649604828869375 
_cell_angle_alpha                 88.09533878806737 
_cell_angle_beta                  89.14528298724768 
_cell_angle_gamma                 91.12931799631531 
loop_ 
_atom_site_label 
_atom_site_type_symbol 
_atom_site_fract_x 
_atom_site_fract_y 
_atom_site_fract_z 
_atom_site_charge 
C1          C  0.18826791  0.90868706  0.00742053     0.02900
C2          C  0.20013551  0.88692609  0.96634339    -0.13300
C3          C  0.23415676  0.85283946  0.96604533     0.00400
C4          C  0.25281421  0.83789388  0.00970989    -0.11800
C5          C  0.23720932  0.85737012  0.05227921     0.02900
C6          C  0.20295439  0.89080022  0.05011869    -0.11200
H7          H  0.18831966  0.90270146  0.93385035     0.08500
H8          H  0.28081415  0.81362292  0.01029575     0.06000
H9          H  0.19300119  0.90901913  0.08122979     0.05800
C10         C  0.95407979  0.28252580  0.99758673     0.02900
C11         C  0.93955638  0.29991866  0.03987165    -0.13300
C12         C  0.90038484  0.32734278  0.04197273     0.00400
C13         C  0.88007356  0.34209728  0.99882348    -0.11800
C14         C  0.90094646  0.33046816  0.95512907     0.02900
C15         C  0.94244782  0.30666608  0.95653157    -0.11200
H16         H  0.95291510  0.28410620  0.07166346     0.08500
H17         H  0.84754637  0.35946650  0.99930306     0.06000
H18         H  0.95774036  0.29485996  0.92439790     0.05800
C19         C  0.94208221  0.07756739  0.32031165     0.02900
C20         C  0.91346057  0.03792073  0.31734296    -0.13300
C21         C  0.87326322  0.03956436  0.29215258     0.00400
C22         C  0.85676844  0.08361528  0.27628814    -0.11800
C23         C  0.88278695  0.12513162  0.28424615     0.02900
C24         C  0.92605214  0.12134943  0.30429037    -0.11200
H25         H  0.92415225  0.00416606  0.33157740     0.08500
H26         H  0.82463867  0.08556428  0.25820783     0.06000
H27         H  0.94727879  0.15275760  0.30669446     0.05800
C28         C  0.23533084  0.07206306  0.87680388     0.02900
C29         C  0.25086946  0.11505375  0.85670022    -0.13300
C30         C  0.28577683  0.11792530  0.82289036     0.00400
C31         C  0.30624974  0.07559429  0.80870978    -0.11800
C32         C  0.29176317  0.03183727  0.83006374     0.02900
C33         C  0.25968311  0.03175200  0.86673589    -0.11200
H34         H  0.23420113  0.14712670  0.86499073     0.08500
H35         H  0.33098063  0.07644084  0.78022377     0.06000
H36         H  0.25138108  0.99863286  0.88476631     0.05800
C37         C  0.08414159  0.88944681  0.15785099     0.02900
C38         C  0.12169872  0.88533701  0.18609077    -0.13300
C39         C  0.11669321  0.86904925  0.23219563     0.00400
C40         C  0.07214013  0.86252587  0.25213636    -0.11800
C41         C  0.03344738  0.87498042  0.22501615     0.02900
C42         C  0.04052677  0.88857154  0.17790801    -0.11200
H43         H  0.15535056  0.88678979  0.16964132     0.08500
H44         H  0.06773423  0.84807267  0.28738446     0.06000
H45         H  0.01144391  0.89175511  0.15513271     0.05800
C46         C  0.06637556  0.43155318  0.81767941     0.02900
C47         C  0.10717083  0.40844658  0.80801014    -0.13300
C48         C  0.10842018  0.37052575  0.77782960     0.00400
C49         C  0.06633249  0.35238113  0.76066525    -0.11800
C50         C  0.02552204  0.37786450  0.76805635     0.02900
C51         C  0.02825738  0.42019940  0.79147690    -0.11200
H52         H  0.13825983  0.41808370  0.82554536     0.08500
H53         H  0.06562937  0.32071783  0.74072298     0.06000
H54         H  0.99790292  0.44098266  0.79490090     0.05800
C55         C  0.91398903  0.93611764  0.99677127     0.02900
C56         C  0.90818851  0.91134612  0.03876202    -0.13300
C57         C  0.88568903  0.86749625  0.04176734     0.00400
C58         C  0.87396632  0.84562050  0.99890419    -0.11800
C59         C  0.88458048  0.86903832  0.95456409     0.02900
C60         C  0.90410754  0.91455138  0.95503199    -0.11200
H61         H  0.91742164  0.92920732  0.07009902     0.08500
H62         H  0.85607662  0.81193141  0.00000746     0.06000
H63         H  0.90940675  0.93494744  0.92272509     0.05800
C64         C  0.18822890  0.25474545  0.99801268     0.02900
C65         C  0.20290608  0.27729722  0.03719992    -0.13300
C66         C  0.24155347  0.30730087  0.03461191     0.00400
C67         C  0.25923406  0.32151249  0.98978493    -0.11800
C68         C  0.23848774  0.30426141  0.94884555     0.02900
C69         C  0.20145538  0.27238120  0.95403250    -0.11200
H70         H  0.19002790  0.26338497  0.07063022     0.08500
H71         H  0.28988733  0.34336878  0.98690156     0.06000
H72         H  0.18847358  0.25423341  0.92413785     0.05800
C73         C  0.90832448  0.07483293  0.85579251     0.02900
C74         C  0.89384890  0.11789020  0.83688711    -0.13300
C75         C  0.85286826  0.12192802  0.81233059     0.00400
C76         C  0.82932565  0.07949264  0.80042579    -0.11800
C77         C  0.84592509  0.03515420  0.81694519     0.02900
C78         C  0.88127366  0.03496377  0.84903727    -0.11200
H79         H  0.91467140  0.14897521  0.84119445     0.08500
H80         H  0.80035253  0.08087441  0.77746053     0.06000
H81         H  0.88938242  0.00198979  0.86644330     0.05800
C82         C  0.26909184  0.07181887  0.29289687     0.02900
C83         C  0.27500560  0.11400864  0.26735972    -0.13300
C84         C  0.30695961  0.11892836  0.23048883     0.00400
C85         C  0.33188123  0.07936791  0.21676406    -0.11800
C86         C  0.32569421  0.03621441  0.24218153     0.02900
C87         C  0.29700007  0.03442861  0.28206787    -0.11200
H88         H  0.25372591  0.14337567  0.27566336     0.08500
H89         H  0.35422353  0.08173974  0.18630204     0.06000
H90         H  0.29216209  0.00200717  0.30214140     0.05800
C91         C  0.05940792  0.75619518  0.84886921     0.02900
C92         C  0.10252231  0.76377379  0.82869102    -0.13300
C93         C  0.10775297  0.78662381  0.78501575     0.00400
C94         C  0.06796659  0.80080698  0.76041909    -0.11800
C95         C  0.02402836  0.78735690  0.77920912     0.02900
C96         C  0.02108215  0.76156737  0.82144202    -0.11200
H97         H  0.13248096  0.75848884  0.84994485     0.08500
H98         H  0.07106976  0.82177748  0.72826554     0.06000
H99         H  0.98775871  0.75423350  0.83751737     0.05800
C100        C  0.06200336  0.38668264  0.14538335     0.02900
C101        C  0.10504114  0.37190486  0.16000841    -0.13300
C102        C  0.11015301  0.34309104  0.20006978     0.00400
C103        C  0.07097224  0.32500591  0.22458743    -0.11800
C104        C  0.02734505  0.33791275  0.20875730     0.02900
C105        C  0.02372651  0.37021800  0.17120623    -0.11200
H106        H  0.13556622  0.38233097  0.14034747     0.08500
H107        H  0.07435228  0.30242923  0.25547271     0.06000
H108        H  0.99011946  0.38275390  0.16288178     0.05800
C109        C  0.41063809  0.58605500  0.64006378     0.02900
C110        C  0.38521077  0.62514385  0.65137621    -0.13300
C111        C  0.34963354  0.62235758  0.68465926     0.00400
C112        C  0.33270060  0.57681518  0.69976992    -0.11800
C113        C  0.35549249  0.53573992  0.68475827     0.02900
C114        C  0.39558151  0.54195752  0.65780566    -0.11200
H115        H  0.39434733  0.65922836  0.63619714     0.08500
H116        H  0.30402189  0.57346263  0.72397746     0.06000
H117        H  0.41523937  0.51142170  0.65073898     0.05800
C118        C  0.37109942  0.59392140  0.21233441     0.02900
C119        C  0.34378869  0.63003432  0.22748503    -0.13300
C120        C  0.31387998  0.62310481  0.26561755     0.00400
C121        C  0.30629542  0.57736665  0.28546338    -0.11800
C122        C  0.33126435  0.53958546  0.26769718     0.02900
C123        C  0.36409280  0.54877185  0.23215730    -0.11200
H124        H  0.34918141  0.66526885  0.21263259     0.08500
H125        H  0.28260662  0.57154544  0.31453434     0.06000
H126        H  0.38507524  0.52036639  0.22046442     0.05800
C127        C  0.45581578  0.37744382  0.48929017     0.02900
C128        C  0.44454110  0.35045841  0.52948555    -0.13300
C129        C  0.40156737  0.32770322  0.53205115     0.00400
C130        C  0.37882123  0.31900439  0.48948634    -0.11800
C131        C  0.39832465  0.33613010  0.44617295     0.02900
C132        C  0.43905628  0.36277430  0.44693375    -0.11200
H133        H  0.46116027  0.36003750  0.56146599     0.08500
H134        H  0.34518873  0.30249331  0.49028536     0.06000
H135        H  0.45180181  0.38060871  0.41521155     0.05800
Zr136      Zr  0.38614306  0.36834184  0.69466158     2.17500
O137        O  0.44878394  0.42227828  0.67100601    -0.51600
O138        O  0.39439624  0.34979807  0.61145961    -0.74800
O139        O  0.46339813  0.33610663  0.70854244    -0.81600
O140        O  0.29895742  0.47521778  0.70550560    -0.83300
O141        O  0.45079460  0.26156776  0.73747056    -0.78900
O142        O  0.37202231  0.45381906  0.69208813    -0.90600
O143        O  0.34248289  0.29789409  0.58424668    -0.76500
O144        O  0.36688664  0.28816251  0.68184974    -0.86000
O145        O  0.31126457  0.36743109  0.66246982    -0.85700
O146        O  0.39040755  0.33043778  0.77092211    -0.72500
O147        O  0.33633779  0.40158881  0.75180195    -0.84600
Zr148      Zr  0.24580664  0.27892272  0.78347903     2.26400
Zr149      Zr  0.37019674  0.24986577  0.75741219     2.06300
Zr150      Zr  0.26093634  0.39874841  0.72032747     2.10000
Zr151      Zr  0.29155942  0.28667650  0.65100468     1.78800
O152        O  0.22406560  0.46644026  0.75323790    -0.93400
O153        O  0.30854350  0.20771128  0.62605220    -0.41200
O154        O  0.24084499  0.31825699  0.70807836    -0.77900
O155        O  0.29458203  0.24563435  0.72516142    -0.96600
O156        O  0.32042602  0.28145334  0.81539842    -0.89900
O157        O  0.26375455  0.35975212  0.79554859    -0.92700
C158        C  0.37805057  0.32431098  0.57883979     1.01100
C159        C  0.34094115  0.48539295  0.69572495     1.14000
C160        C  0.47739900  0.29494982  0.72127273     1.04800
O161        O  0.39953182  0.18216377  0.71741279    -0.94900
O162        O  0.33628768  0.17536700  0.78545088    -0.90600
O163        O  0.26396460  0.19635411  0.80354015    -0.83700
C164        C  0.29620100  0.16590271  0.80196878     1.11400
O165        O  0.39696956  0.42108603  0.84397117    -0.96800
Zr166      Zr  0.33854741  0.36239114  0.82675314     1.88900
O167        O  0.23888562  0.29068018  0.86740851    -0.73500
O168        O  0.41033686  0.23196236  0.82942405    -0.52700
O169        O  0.39286277  0.33037208  0.88228224    -0.97400
O170        O  0.31119128  0.43583441  0.85760005    -0.54600
O171        O  0.29375373  0.33878011  0.89543643    -0.74000
C172        C  0.25827612  0.31221973  0.90094053     0.98400
O173        O  0.17800397  0.22760146  0.78563809    -0.62800
O174        O  0.22681975  0.41313653  0.64426315    -0.57600
O175        O  0.16904927  0.31374286  0.77909592    -0.94300
O176        O  0.18130299  0.38647747  0.74513458    -0.92700
O177        O  0.24798453  0.32173936  0.58733760    -0.93100
O178        O  0.22024070  0.24541350  0.63461512    -0.91900
C179        C  0.15522295  0.35459344  0.76506034     1.17200
H180        H  0.31100090  0.38601998  0.63364333     0.33100
H181        H  0.28562013  0.21341860  0.71986415     0.44000
H182        H  0.24205305  0.37322303  0.81674943     0.37500
H183        H  0.42055881  0.33313948  0.78379731     0.34000
H184        H  0.30027257  0.20776438  0.59265937     0.25800
H185        H  0.38604490  0.22343907  0.85274548     0.31700
H186        H  0.38673993  0.34693425  0.91152792     0.37600
H187        H  0.26690978  0.34850943  0.57455769     0.32100
H188        H  0.19356773  0.41393781  0.65072488     0.31000
H189        H  0.20802822  0.48165962  0.72675111     0.32700
H190        H  0.28378376  0.42717282  0.87685267     0.31600
H191        H  0.20717111  0.23621822  0.66573887     0.35600
H192        H  0.18409251  0.20325719  0.76254487     0.28300
H193        H  0.46775648  0.40517804  0.64851723     0.32600
H194        H  0.41086247  0.43018541  0.81319562     0.35400
H195        H  0.23559021  0.44607451  0.63546121     0.28000
H196        H  0.17817562  0.21068963  0.81643090     0.40900
H197        H  0.41004609  0.19471548  0.68635389     0.31000
H198        H  0.34229094  0.20643285  0.62578392     0.38600
H199        H  0.29912642  0.45330809  0.83013735     0.30400
H200        H  0.42572801  0.20197021  0.82364133     0.30500
H201        H  0.46796397  0.42555587  0.69893520     0.30800
C202        C  0.69392313  0.40180648  0.49173110     0.02900
C203        C  0.70398234  0.37733953  0.45211325    -0.13300
C204        C  0.73868350  0.34383535  0.45223175     0.00400
C205        C  0.75680013  0.32865892  0.49614628    -0.11800
C206        C  0.74100059  0.34902536  0.53842914     0.02900
C207        C  0.70913567  0.38526435  0.53487084    -0.11200
H208        H  0.69047548  0.39096003  0.41942302     0.08500
H209        H  0.78418441  0.30366706  0.49713611     0.06000
H210        H  0.70074232  0.40570920  0.56499045     0.05800
C211        C  0.56911396  0.22303735  0.66643711     0.02900
C212        C  0.52755336  0.24276575  0.68004392    -0.13300
C213        C  0.52511929  0.28061769  0.70990847     0.00400
C214        C  0.56645174  0.30076659  0.72652207    -0.11800
C215        C  0.60881900  0.27964974  0.71526664     0.02900
C216        C  0.60888123  0.24022666  0.68703218    -0.11200
H217        H  0.49574545  0.23074710  0.66573608     0.08500
H218        H  0.56559225  0.33076640  0.74877894     0.06000
H219        H  0.64134764  0.22483290  0.67922771     0.05800
Zr220      Zr  0.74686210  0.37283119  0.70526278     2.17500
O221        O  0.67733359  0.41781512  0.69587307    -0.51600
O222        O  0.74242883  0.36102640  0.62061601    -0.74800
O223        O  0.76281474  0.45753331  0.68910803    -0.81600
O224        O  0.68092885  0.26452028  0.74710414    -0.83300
O225        O  0.83632557  0.47981035  0.70176156    -0.78900
O226        O  0.66954403  0.33788128  0.71605092    -0.90600
O227        O  0.79413261  0.31174147  0.59093148    -0.76500
O228        O  0.82146303  0.37207636  0.67108914    -0.86000
O229        O  0.76287192  0.29193708  0.69405753    -0.85700
O230        O  0.79543882  0.40812984  0.76235156    -0.72500
O231        O  0.74140156  0.33469219  0.78191819    -0.84600
Zr232      Zr  0.88524030  0.28919223  0.79173111     2.26400
Zr233      Zr  0.87078547  0.40635466  0.72792851     2.06300
Zr234      Zr  0.76010105  0.25429813  0.77035558     2.10000
Zr235      Zr  0.83751583  0.29101400  0.66027551     1.78800
O236        O  0.72118776  0.24126888  0.84544384    -0.93400
O237        O  0.89335194  0.32089568  0.60221142    -0.41200
O238        O  0.83543834  0.25303249  0.73633077    -0.77900
O239        O  0.88890101  0.32591776  0.71444660    -0.96600
O240        O  0.86758192  0.36902792  0.80399191    -0.89900
O241        O  0.81057363  0.28795237  0.82634665    -0.92700
C242        C  0.76043562  0.33937439  0.58614147     1.01100
C243        C  0.65523954  0.29629906  0.72907935     1.14000
C244        C  0.79546004  0.48886520  0.68944467     1.04800
O245        O  0.91369224  0.43835977  0.66028062    -0.94900
O246        O  0.95178644  0.39406965  0.74097447    -0.90600
O247        O  0.96288385  0.32174771  0.77467660    -0.83700
C248        C  0.97770452  0.36215696  0.75845597     1.11400
O249        O  0.72524664  0.41616560  0.84934468    -0.96800
Zr250      Zr  0.79241871  0.36850487  0.83741630     1.88900
O251        O  0.89400092  0.30879491  0.87504329    -0.73500
O252        O  0.89750433  0.46749021  0.77912490    -0.52700
O253        O  0.81356912  0.44638622  0.86396159    -0.97400
O254        O  0.74758274  0.33353129  0.90266051    -0.54600
O255        O  0.84188478  0.35815023  0.90407163    -0.74000
C256        C  0.87750635  0.33325702  0.90855604     0.98400
O257        O  0.95388605  0.24446058  0.80746514    -0.62800
O258        O  0.72743137  0.18074455  0.74316925    -0.57600
O259        O  0.86971007  0.20399878  0.80161828    -0.94300
O260        O  0.79716705  0.17955319  0.78847575    -0.92700
O261        O  0.80634341  0.21842025  0.62969722    -0.93100
O262        O  0.89573010  0.23265774  0.64733619    -0.91900
C263        C  0.83865577  0.17126235  0.79932412     1.17200
H264        H  0.74087397  0.27770020  0.67376356     0.33100
H265        H  0.91892558  0.32357398  0.70053414     0.44000
H266        H  0.81012619  0.26956813  0.85530947     0.37500
H267        H  0.78678465  0.43995260  0.76833812     0.34000
H268        H  0.88789927  0.30184483  0.57443637     0.25800
H269        H  0.91549040  0.48969268  0.75843784     0.31700
H270        H  0.84723330  0.44620688  0.86638583     0.37600
H271        H  0.79727125  0.19899689  0.65775488     0.32100
H272        H  0.69978824  0.17448076  0.76289230     0.31000
H273        H  0.73632296  0.21378479  0.86002229     0.32700
H274        H  0.76164968  0.30295177  0.91042709     0.31600
H275        H  0.90033724  0.21738383  0.67843041     0.35600
H276        H  0.94874089  0.22911186  0.83868273     0.28300
H277        H  0.68010734  0.43360756  0.66458401     0.32600
H278        H  0.72438092  0.42236530  0.88314599     0.35400
H279        H  0.71578072  0.18831973  0.71159875     0.28000
H280        H  0.95392469  0.21850383  0.78525860     0.40900
H281        H  0.89099455  0.44122787  0.63514701     0.31000
H282        H  0.88270178  0.35266356  0.59302621     0.38600
H283        H  0.71766107  0.32519993  0.88930211     0.30400
H284        H  0.86986216  0.48498673  0.78756296     0.30500
H285        H  0.67950336  0.44348934  0.71829303     0.30800
C286        C  0.41131362  0.71905770  0.50898463     0.02900
C287        C  0.40201217  0.74322793  0.46787371    -0.13300
C288        C  0.38010360  0.78625889  0.46774508     0.00400
C289        C  0.37084768  0.80713851  0.51125011    -0.11800
C290        C  0.38420092  0.78420687  0.55383219     0.02900
C291        C  0.40404893  0.73984135  0.55169906    -0.11200
H292        H  0.40758614  0.72520842  0.43562291     0.08500
H293        H  0.35272002  0.83992151  0.51203397     0.06000
H294        H  0.41169485  0.72003296  0.58335755     0.05800
Zr295      Zr  0.38765462  0.78120226  0.72274488     2.17500
O296        O  0.45482001  0.73298705  0.73361274    -0.51600
O297        O  0.39299488  0.78321899  0.63674318    -0.74800
O298        O  0.37060239  0.69894937  0.70638680    -0.81600
O299        O  0.45747829  0.88647675  0.76714392    -0.83300
O300        O  0.29577615  0.67809535  0.71621351    -0.78900
O301        O  0.46362491  0.81932490  0.72638006    -0.90600
O302        O  0.34100541  0.83189708  0.60407312    -0.76500
O303        O  0.31518784  0.78525511  0.68699814    -0.86000
O304        O  0.37592532  0.86227545  0.70447828    -0.85700
O305        O  0.33457089  0.74725990  0.78006511    -0.72500
O306        O  0.38981765  0.81963008  0.79620908    -0.84600
Zr307      Zr  0.24972089  0.87159842  0.79821690     2.26400
Zr308      Zr  0.26149009  0.75156003  0.74299129     2.06300
Zr309      Zr  0.37658549  0.90096513  0.77747909     2.10000
Zr310      Zr  0.30290464  0.86647549  0.66968122     1.78800
O311        O  0.41869244  0.92927443  0.84397566    -0.93400
O312        O  0.24431620  0.84544957  0.61418506    -0.41200
O313        O  0.30301008  0.90648915  0.74197820    -0.77900
O314        O  0.24765468  0.83332587  0.72445540    -0.96600
O315        O  0.26200421  0.79043482  0.81638265    -0.89900
O316        O  0.32245342  0.86880905  0.83432723    -0.92700
C317        C  0.37257565  0.80167068  0.60105681     1.01100
C318        C  0.48060328  0.85669274  0.74440953     1.14000
C319        C  0.33717639  0.66884773  0.70449339     1.04800
O320        O  0.22528886  0.72775348  0.67130059    -0.94900
O321        O  0.18004496  0.76551914  0.75579126    -0.90600
O322        O  0.17270882  0.83779660  0.78697012    -0.83700
C323        C  0.15598612  0.79872758  0.77232634     1.11400
O324        O  0.39222193  0.73072724  0.87437361    -0.96800
Zr325      Zr  0.33483823  0.78769911  0.85223776     1.88900
O326        O  0.23758095  0.86179689  0.88292152    -0.73500
O327        O  0.22947819  0.68672927  0.79153387    -0.52700
O328        O  0.30186257  0.71444946  0.88525385    -0.97400
O329        O  0.39030936  0.81583828  0.90798164    -0.54600
O330        O  0.28788620  0.81290989  0.91756437    -0.74000
C331        C  0.25422277  0.84095702  0.91938432     0.98400
O332        O  0.18276345  0.92133802  0.79662557    -0.62800
O333        O  0.40669843  0.96189767  0.72294804    -0.57600
O334        O  0.26903141  0.95459364  0.81166509    -0.94300
O335        O  0.34397023  0.97482121  0.80139109    -0.92700
O336        O  0.34683061  0.93110891  0.63204971    -0.93100
O337        O  0.25305289  0.93162730  0.65055170    -0.91900
C338        C  0.30273198  0.98454961  0.81234063     1.17200
H339        H  0.39955563  0.87479110  0.68342257     0.33100
H340        H  0.21818951  0.83687048  0.71027032     0.44000
H341        H  0.32318999  0.88721533  0.86206140     0.37500
H342        H  0.34177379  0.71489114  0.78742838     0.34000
H343        H  0.25407163  0.86154583  0.58440002     0.25800
H344        H  0.21471059  0.66555189  0.76925205     0.31700
H345        H  0.26887739  0.72051635  0.88895286     0.37600
H346        H  0.33582914  0.93277707  0.59954327     0.32100
H347        H  0.37937535  0.97670433  0.70944083     0.31000
H348        H  0.43198776  0.96007126  0.83305083     0.32700
H349        H  0.37526056  0.81129716  0.93901697     0.31600
H350        H  0.22974051  0.93065442  0.67596072     0.35600
H351        H  0.18004445  0.93343041  0.82853856     0.28300
H352        H  0.45866168  0.71608052  0.70418910     0.32600
H353        H  0.41594678  0.73419843  0.84944964     0.35400
H354        H  0.42011432  0.98620219  0.74287666     0.28000
H355        H  0.19104758  0.94919921  0.77638342     0.40900
H356        H  0.20191843  0.75170340  0.66495857     0.31000
H357        H  0.24886556  0.81162138  0.60885708     0.38600
H358        H  0.39193032  0.85037934  0.90249422     0.30400
H359        H  0.25622356  0.66923575  0.80292192     0.30500
H360        H  0.44550109  0.70837846  0.75731557     0.30800
C361        C  0.73609471  0.58472269  0.62066119     0.02900
C362        C  0.76117848  0.62482597  0.63243451    -0.13300
C363        C  0.79083569  0.62403390  0.67016474     0.00400
C364        C  0.80437328  0.57971187  0.68922938    -0.11800
C365        C  0.78457402  0.53753447  0.67217206     0.02900
C366        C  0.75004358  0.54112199  0.63902749    -0.11200
H367        H  0.75500457  0.65838085  0.61513136     0.08500
H368        H  0.82799160  0.57810799  0.71791680     0.06000
H369        H  0.73295952  0.50912443  0.62933405     0.05800
C370        C  0.56363496  0.90900199  0.65986300     0.02900
C371        C  0.60610882  0.89603984  0.67670280    -0.13300
C372        C  0.60939643  0.86813851  0.71753084     0.00400
C373        C  0.56884699  0.85413090  0.74260345    -0.11800
C374        C  0.52651926  0.87294380  0.72812868     0.02900
C375        C  0.52574332  0.90443906  0.68964340    -0.11200
H376        H  0.63623134  0.90155906  0.65452832     0.08500
H377        H  0.57017064  0.82956599  0.77221071     0.06000
H378        H  0.49302211  0.91578367  0.67645661     0.05800
C379        C  0.68638419  0.74781413  0.49694735     0.02900
C380        C  0.69820978  0.77060701  0.45491089    -0.13300
C381        C  0.73276964  0.80521611  0.45242508     0.00400
C382        C  0.75061091  0.82210468  0.49521728    -0.11800
C383        C  0.73422204  0.80270247  0.53937512     0.02900
C384        C  0.70109671  0.76620430  0.53883546    -0.11200
H385        H  0.68604619  0.75517868  0.42315055     0.08500
H386        H  0.77838209  0.84780541  0.49409289     0.06000
H387        H  0.69179249  0.74674891  0.57081478     0.05800
Zr388      Zr  0.88628819  0.87592313  0.78402649     2.17500
O389        O  0.95325653  0.92784051  0.77502096    -0.51600
O390        O  0.89060827  0.87218150  0.87055074    -0.74800
O391        O  0.86685210  0.95796997  0.79869193    -0.81600
O392        O  0.95523048  0.77073169  0.74172473    -0.83300
O393        O  0.79287047  0.97697800  0.78743209    -0.78900
O394        O  0.96231528  0.84039464  0.77843775    -0.90600
O395        O  0.83987824  0.81984473  0.90442129    -0.76500
O396        O  0.81264103  0.87080570  0.81955224    -0.86000
O397        O  0.87263444  0.79451009  0.80217501    -0.85700
O398        O  0.83592126  0.90727031  0.72550609    -0.72500
O399        O  0.88944305  0.83738086  0.71029081    -0.84600
Zr400      Zr  0.74819912  0.78140766  0.70788318     2.26400
Zr401      Zr  0.76146259  0.90170640  0.76208100     2.06300
Zr402      Zr  0.87429997  0.75570690  0.72887988     2.10000
Zr403      Zr  0.79871253  0.78931238  0.83762847     1.76400
O404        O  0.91609143  0.73562088  0.65843160    -0.93400
O405        O  0.74207760  0.81327484  0.89473422    -0.41200
O406        O  0.79977796  0.74942102  0.76491406    -0.77900
O407        O  0.74569124  0.82009523  0.78158005    -0.96600
O408        O  0.76255753  0.86245392  0.68906416    -0.89900
O409        O  0.82200041  0.78553550  0.67199417    -0.92700
C410        C  0.87134998  0.85162152  0.90707512     1.01100
C411        C  0.97881824  0.80228570  0.76221097     1.14000
C412        C  0.83378647  0.98748207  0.79926671     1.04800
O413        O  0.72007781  0.92218231  0.83278209    -0.94900
O414        O  0.68114373  0.88742841  0.74654859    -0.90600
O415        O  0.67167475  0.81524814  0.71540875    -0.83700
C416        C  0.65638150  0.85467901  0.72951803     1.11400
O417        O  0.89637338  0.92148575  0.62540816    -0.96800
Zr418      Zr  0.83639881  0.86659028  0.65325863     1.88900
O419        O  0.73718681  0.79167803  0.62283915    -0.73500
O420        O  0.73709066  0.96721660  0.71208941    -0.52700
O421        O  0.80427310  0.94075382  0.62612209    -0.97400
O422        O  0.88848119  0.83687274  0.59447635    -0.54600
O423        O  0.78920351  0.84188584  0.58804218    -0.74000
C424        C  0.75472693  0.81344038  0.58621557     0.98400
O425        O  0.68148761  0.72921106  0.71789563    -0.62800
O426        O  0.89960716  0.68921210  0.77708847    -0.57600
O427        O  0.76718582  0.69977216  0.69075977    -0.94300
O428        O  0.84128099  0.68143184  0.70344076    -0.92700
O429        O  0.83426493  0.71950425  0.87117886    -0.93100
O430        O  0.74142526  0.72844950  0.85748420    -0.91900
C431        C  0.80075250  0.67088952  0.69040631     1.17200
H432        H  0.89541958  0.78248600  0.82321220     0.33100
H433        H  0.71553010  0.81649431  0.79544250     0.44000
H434        H  0.82311693  0.76701789  0.64435070     0.37500
H435        H  0.84384316  0.93974829  0.71776500     0.34000
H436        H  0.75246142  0.79994380  0.92504760     0.25800
H437        H  0.71935797  0.95255896  0.68705570     0.31700
H438        H  0.77346062  0.93226355  0.61499453     0.37600
H439        H  0.82720795  0.72028170  0.90505000     0.32100
H440        H  0.92382820  0.67473471  0.75821526     0.31000
H441        H  0.93165514  0.70603856  0.66699162     0.32700
H442        H  0.87371922  0.80765947  0.58365095     0.31600
H443        H  0.71945421  0.73019938  0.83158668     0.35600
H444        H  0.67921843  0.71209410  0.68844963     0.28300
H445        H  0.95614834  0.94313557  0.80537313     0.32600
H446        H  0.91855782  0.92199700  0.65112978     0.35400
H447        H  0.91601114  0.70321683  0.80336361     0.28000
H448        H  0.69017349  0.70516368  0.74174933     0.40900
H449        H  0.68931902  0.93141685  0.82252069     0.31000
H450        H  0.74711023  0.84765675  0.89691717     0.38600
H451        H  0.91515567  0.82586411  0.61228356     0.30400
H452        H  0.71404491  0.98341551  0.73101979     0.30500
H453        H  0.94431819  0.95328913  0.75275781     0.30800
C454        C  0.56589997  0.28939020  0.34752074     0.02900
C455        C  0.52635619  0.29127281  0.32100667    -0.13300
C456        C  0.52463256  0.31844711  0.27965180     0.00400
C457        C  0.56492490  0.33974284  0.26059923    -0.11800
C458        C  0.60567706  0.33642838  0.28613042     0.02900
C459        C  0.60479608  0.31428709  0.33054749    -0.11200
H460        H  0.49586407  0.27181695  0.33229155     0.08500
H461        H  0.56481366  0.35735914  0.22650954     0.06000
H462        H  0.63594056  0.31427584  0.35035478     0.05800
Zr463      Zr  0.76071745  0.38849574  0.29120030     2.17500
O464        O  0.73970022  0.44887670  0.34592216    -0.51600
O465        O  0.67836695  0.37359459  0.28631641    -0.74800
O466        O  0.75463598  0.46813631  0.25580006    -0.81600
O467        O  0.77903224  0.29568887  0.39633074    -0.83300
O468        O  0.79283565  0.47185481  0.18592465    -0.78900
O469        O  0.75288194  0.36723852  0.37375826    -0.90600
O470        O  0.66469866  0.31503860  0.23593471    -0.76500
O471        O  0.75177294  0.37212419  0.21095962    -0.86000
O472        O  0.74703241  0.30566109  0.28930643    -0.85700
O473        O  0.83174410  0.41272112  0.25416089    -0.72500
O474        O  0.82553500  0.35196805  0.32658245    -0.84600
Zr475      Zr  0.87497595  0.27606074  0.20327255     2.26400
Zr476      Zr  0.82319034  0.39437487  0.17320859     2.06300
Zr477      Zr  0.81239305  0.26864703  0.32245702     2.10000
Zr478      Zr  0.73857114  0.28940866  0.20897296     1.78800
O479        O  0.86715725  0.24932610  0.38297723    -0.93400
O480        O  0.70245374  0.32007147  0.13845489    -0.41200
O481        O  0.80405439  0.25130485  0.24127311    -0.77900
O482        O  0.80856737  0.31111404  0.16931247    -0.96600
O483        O  0.88869624  0.35833798  0.20713947    -0.89900
O484        O  0.88342771  0.29170480  0.28427752    -0.92700
C485        C  0.65170027  0.34457389  0.26589567     1.01100
C486        C  0.75873599  0.33429657  0.40489906     1.14000
C487        C  0.76897000  0.49018111  0.21825982     1.04800
O488        O  0.77101793  0.41239207  0.11001299    -0.94900
O489        O  0.85744381  0.36943345  0.09949470    -0.90600
O490        O  0.88705276  0.29863540  0.12010865    -0.83700
C491        C  0.87966205  0.33236689  0.08985349     1.11400
O492        O  0.89927594  0.43938264  0.34127829    -0.96800
Zr493      Zr  0.89580236  0.37450536  0.28795603     1.88900
O494        O  0.95656190  0.29727967  0.20770244    -0.73500
O495        O  0.88215503  0.45281732  0.15095959    -0.52700
O496        O  0.93464184  0.44535043  0.25613848    -0.97400
O497        O  0.93105830  0.35414610  0.36220267    -0.54600
O498        O  0.97053006  0.34856539  0.26522102    -0.74000
C499        C  0.98323475  0.32410489  0.23095207     0.98400
O500        O  0.89513399  0.21623456  0.14767188    -0.62800
O501        O  0.75447944  0.21252375  0.35270983    -0.57600
O502        O  0.88332598  0.19680911  0.23892810    -0.94300
O503        O  0.83912162  0.19023955  0.30499194    -0.92700
O504        O  0.69828368  0.21775982  0.23667596    -0.93100
O505        O  0.73100611  0.22683731  0.15339388    -0.91900
C506        C  0.86614626  0.17326508  0.27439865     1.17200
H507        H  0.72032079  0.29596726  0.30759364     0.33100
H508        H  0.80474258  0.30209550  0.13740404     0.44000
H509        H  0.90861727  0.27453479  0.29733062     0.37500
H510        H  0.83748618  0.44595532  0.25755381     0.34000
H511        H  0.67712891  0.29758854  0.13257927     0.25800
H512        H  0.90835866  0.43456634  0.13979113     0.31700
H513        H  0.94810651  0.43611318  0.22598556     0.37600
H514        H  0.68428660  0.22562318  0.26703153     0.32100
H515        H  0.75046898  0.18960198  0.32776187     0.31000
H516        H  0.86040402  0.21596585  0.39201043     0.32700
H517        H  0.94636349  0.32396406  0.35720232     0.31600
H518        H  0.76166012  0.21289051  0.15185963     0.35600
H519        H  0.92406101  0.20263492  0.15872042     0.28300
H520        H  0.71273103  0.46477187  0.33282272     0.32600
H521        H  0.86705698  0.44464271  0.35024507     0.35400
H522        H  0.76972960  0.19472632  0.37814312     0.28000
H523        H  0.87190155  0.19061109  0.15179590     0.40900
H524        H  0.78197795  0.44318699  0.09659818     0.31000
H525        H  0.68700050  0.34894839  0.14806041     0.38600
H526        H  0.90511741  0.34577568  0.38362645     0.30400
H527        H  0.87051344  0.46893819  0.12251697     0.30500
H528        H  0.76473509  0.47281472  0.34421200     0.30800
C529        C  0.57340881  0.77189270  0.35431555     0.02900
C530        C  0.61037595  0.76745603  0.32479159    -0.13300
C531        C  0.60943620  0.78505978  0.27857277     0.00400
C532        C  0.56679222  0.80052998  0.26016006    -0.11800
C533        C  0.52655538  0.79662020  0.28915148     0.02900
C534        C  0.53122974  0.78314833  0.33623098    -0.11200
H535        H  0.64238660  0.75842353  0.34108938     0.08500
H536        H  0.56496795  0.81455117  0.22467346     0.06000
H537        H  0.50237282  0.78593612  0.36014980     0.05800
C538        C  0.69697756  0.58909231  0.17370794     0.02900
C539        C  0.72602208  0.62782871  0.17980316    -0.13300
C540        C  0.76507449  0.62399233  0.20657852     0.00400
C541        C  0.77997643  0.57895118  0.22101547    -0.11800
C542        C  0.75382992  0.53865406  0.20926754     0.02900
C543        C  0.71182159  0.54420704  0.18717818    -0.11200
H544        H  0.71592092  0.66249505  0.16736274     0.08500
H545        H  0.81114306  0.57528172  0.24052939     0.06000
H546        H  0.69018387  0.51351411  0.18210157     0.05800
Zr547      Zr  0.87200725  0.89736196  0.20689973     2.17500
O548        O  0.90167706  0.96191537  0.15605765    -0.51600
O549        O  0.95474696  0.89197528  0.21878736    -0.74800
O550        O  0.86812570  0.97559866  0.24174587    -0.81600
O551        O  0.85847438  0.80841953  0.09996669    -0.83300
O552        O  0.83223183  0.96987639  0.31279487    -0.78900
O553        O  0.87650952  0.88169780  0.12291767    -0.90600
O554        O  0.97475266  0.83230862  0.26823073    -0.76500
O555        O  0.87944032  0.87778530  0.28762740    -0.86000
O556        O  0.89415879  0.81722479  0.21042635    -0.85700
O557        O  0.79769481  0.91075313  0.24104777    -0.72500
O558        O  0.81174614  0.85416019  0.17043250    -0.84600
Zr559      Zr  0.76784003  0.76536554  0.29203056     2.26400
Zr560      Zr  0.80531026  0.88894329  0.32234795     2.06300
Zr561      Zr  0.83345560  0.77330617  0.17559088     2.10000
Zr562      Zr  0.90128896  0.79751594  0.29146994     1.78800
O563        O  0.78473906  0.74649461  0.11319804    -0.93400
O564        O  0.93433437  0.82801927  0.36221797    -0.41200
O565        O  0.84133825  0.75181403  0.25709315    -0.77900
O566        O  0.82849070  0.80825777  0.32808876    -0.96600
O567        O  0.74508982  0.84512337  0.28719116    -0.89900
O568        O  0.76001210  0.78474797  0.21101541    -0.92700
C569        C  0.98481724  0.86670805  0.23980319     1.01100
C570        C  0.87252591  0.85078516  0.09091938     1.14000
C571        C  0.85432806  0.99306125  0.28034664     1.04800
O572        O  0.84816057  0.91287493  0.39007507    -0.94900
O573        O  0.77202557  0.85626956  0.39533260    -0.90600
O574        O  0.74881478  0.78352233  0.37401822    -0.83700
C575        C  0.75269291  0.81610315  0.40447313     1.11400
O576        O  0.74135815  0.92920836  0.14724417    -0.96800
Zr577      Zr  0.73830034  0.86506358  0.20598202     1.88900
O578        O  0.68683763  0.76534750  0.27276941    -0.73500
O579        O  0.73785405  0.93491768  0.33818548    -0.52700
O580        O  0.68930574  0.92904636  0.22849256    -0.97400
O581        O  0.70450981  0.83792317  0.13415297    -0.54600
O582        O  0.66504307  0.83158324  0.23360953    -0.74000
C583        C  0.65609417  0.79377962  0.25791118     0.98400
O584        O  0.74980751  0.70192828  0.34931101    -0.62800
O585        O  0.89842771  0.72659039  0.15271640    -0.57600
O586        O  0.77033138  0.68695721  0.25818295    -0.94300
O587        O  0.80846383  0.69222288  0.18829151    -0.92700
O588        O  0.94749238  0.73289274  0.26537039    -0.93100
O589        O  0.90971731  0.73546425  0.35114894    -0.91900
C590        C  0.78510225  0.66941806  0.22002270     1.17200
H591        H  0.92228073  0.81266698  0.19333558     0.33100
H592        H  0.83162566  0.79811658  0.36034394     0.44000
H593        H  0.73745552  0.76445046  0.19727608     0.37500
H594        H  0.78924059  0.94327664  0.23720233     0.34000
H595        H  0.94269176  0.86125150  0.35418539     0.25800
H596        H  0.74481296  0.95109039  0.36739899     0.31700
H597        H  0.66127252  0.92502737  0.21002599     0.37600
H598        H  0.92592871  0.71199303  0.24916978     0.32100
H599        H  0.88754718  0.70897506  0.12565235     0.31000
H600        H  0.80341808  0.72386177  0.09608994     0.32700
H601        H  0.69242992  0.80577950  0.14169153     0.31600
H602        H  0.88083268  0.71687346  0.35033683     0.35600
H603        H  0.72148580  0.68664988  0.33823121     0.28300
H604        H  0.92432346  0.97937992  0.17452463     0.32600
H605        H  0.71004764  0.93153452  0.13499700     0.35400
H606        H  0.92123868  0.74947119  0.13914408     0.28000
H607        H  0.77382506  0.67822527  0.34586452     0.40900
H608        H  0.87971349  0.91884380  0.37817960     0.31000
H609        H  0.90834576  0.82986867  0.38451625     0.38600
H610        H  0.73090425  0.83326508  0.11292660     0.30400
H611        H  0.73842074  0.96034323  0.31370690     0.30500
H612        H  0.87604416  0.98367446  0.15146688     0.30800
Zr613      Zr  0.26574421  0.89016805  0.21531423     2.17500
O614        O  0.21361583  0.95273872  0.19281923    -0.51600
O615        O  0.24867035  0.87596282  0.13244420    -0.74800
O616        O  0.30289349  0.96827961  0.20526132    -0.81600
O617        O  0.16871537  0.80955575  0.25525028    -0.83300
O618        O  0.37283824  0.96883077  0.23870541    -0.78900
O619        O  0.19134551  0.88577558  0.25519346    -0.90600
O620        O  0.28813888  0.81607156  0.10259724    -0.76500
O621        O  0.33867917  0.87068485  0.18445174    -0.86000
O622        O  0.25737289  0.80855626  0.20007276    -0.85700
O623        O  0.31901966  0.90354140  0.27692374    -0.72500
O624        O  0.24564671  0.85119946  0.28890345    -0.84600
Zr625      Zr  0.36676306  0.76531244  0.30283014     2.26400
Zr626      Zr  0.39278965  0.88489156  0.24533945     2.06300
Zr627      Zr  0.23993965  0.76927975  0.27438364     2.10000
Zr628      Zr  0.33082042  0.78886010  0.16934372     1.78800
O629        O  0.20379034  0.74960333  0.34979215    -0.93400
O630        O  0.38814938  0.81573609  0.11124587    -0.41200
O631        O  0.31319888  0.75045830  0.24271113    -0.77900
O632        O  0.38656528  0.80270878  0.22814261    -0.96600
O633        O  0.37292700  0.84626089  0.31944555    -0.89900
O634        O  0.29402020  0.78361343  0.33465770    -0.92700
C635        C  0.25944077  0.84906826  0.09853468     1.01100
C636        C  0.16017251  0.85372815  0.25227102     1.14000
C637        C  0.33674473  0.98958013  0.22404496     1.04800
O638        O  0.43141385  0.90940536  0.17249201    -0.94900
O639        O  0.46756260  0.84764838  0.25901833    -0.90600
O640        O  0.44907196  0.77494533  0.28990360    -0.83700
C641        C  0.47846193  0.80692665  0.27619354     1.11400
O642        O  0.24564006  0.92932374  0.35875277    -0.96800
Zr643      Zr  0.29888604  0.86545211  0.34938300     1.88900
O644        O  0.37488404  0.77940335  0.38596670    -0.73500
O645        O  0.44602683  0.93096189  0.29082537    -0.52700
O646        O  0.33781640  0.93232471  0.38332877    -0.97400
O647        O  0.23857482  0.84059519  0.40511814    -0.54600
O648        O  0.33577537  0.83734059  0.41893320    -0.74000
C649        C  0.36297871  0.80306816  0.42158623     0.98400
O650        O  0.40877342  0.69459489  0.32409464    -0.62800
O651        O  0.18404999  0.71259156  0.24642458    -0.57600
O652        O  0.33029704  0.68709996  0.31162993    -0.94300
O653        O  0.26607605  0.68863696  0.26871050    -0.92700
O654        O  0.29221050  0.71884533  0.14142551    -0.93100
O655        O  0.38046470  0.72516749  0.14760377    -0.91900
C656        C  0.30007311  0.66707106  0.28659947     1.17200
H657        H  0.23298893  0.80180273  0.17883465     0.33100
H658        H  0.41483361  0.79163144  0.21530805     0.44000
H659        H  0.28764733  0.76460359  0.36262952     0.37500
H660        H  0.31750804  0.93464261  0.28755829     0.34000
H661        H  0.37845351  0.80158195  0.08177436     0.25800
H662        H  0.46045431  0.95383690  0.26804078     0.31700
H663        H  0.37064812  0.92707433  0.37735486     0.37600
H664        H  0.27026986  0.70924859  0.16675519     0.32100
H665        H  0.15735381  0.71461019  0.26780755     0.31000
H666        H  0.20322223  0.71476807  0.35179462     0.32700
H667        H  0.24142079  0.86240477  0.43119537     0.31600
H668        H  0.41189024  0.73628750  0.15406621     0.35600
H669        H  0.42913983  0.68829555  0.29727982     0.28300
H670        H  0.22628608  0.96746773  0.16349090     0.32600
H671        H  0.24977985  0.94036541  0.39084330     0.35400
H672        H  0.17371597  0.72605027  0.21616092     0.28000
H673        H  0.42950705  0.70390419  0.34931411     0.40900
H674        H  0.46421205  0.90458809  0.17846430     0.31000
H675        H  0.38303705  0.84982095  0.10622448     0.38600
H676        H  0.24809821  0.80992273  0.41867486     0.30400
H677        H  0.42664001  0.95019116  0.31102568     0.30500
H678        H  0.21691420  0.97714243  0.21645034     0.30800
Zr679      Zr  0.37991616  0.38061073  0.28299650     2.17500
O680        O  0.44246295  0.43273720  0.30579275    -0.51600
O681        O  0.38784764  0.36244478  0.36724966    -0.74800
O682        O  0.35881541  0.46382172  0.28496828    -0.81600
O683        O  0.45878840  0.28417665  0.24976993    -0.83300
O684        O  0.28238805  0.47258536  0.27654202    -0.78900
O685        O  0.45901005  0.36243485  0.26335878    -0.90600
O686        O  0.34346079  0.30189201  0.39605889    -0.76500
O687        O  0.30486894  0.36921022  0.31507910    -0.86000
O688        O  0.37165511  0.29815232  0.29883905    -0.85700
O689        O  0.33048925  0.40728897  0.22106628    -0.72500
O690        O  0.39337830  0.34360392  0.20938709    -0.84600
Zr691      Zr  0.25713782  0.27562492  0.19828182     2.26400
Zr692      Zr  0.25504929  0.39506859  0.25387838     2.06300
Zr693      Zr  0.38311317  0.26117476  0.22577135     2.10000
Zr694      Zr  0.29617419  0.28620556  0.32995384     1.78800
O695        O  0.43085280  0.24542954  0.15801423    -0.93400
O696        O  0.24386173  0.31579387  0.38843657    -0.41200
O697        O  0.30779852  0.24917622  0.25756024    -0.77900
O698        O  0.24381803  0.31266872  0.27162462    -0.96600
O699        O  0.26642213  0.35758884  0.18095589    -0.89900
O700        O  0.33223082  0.28591628  0.16544723    -0.92700
C701        C  0.37469508  0.33326806  0.40055074     1.01100
C702        C  0.47885570  0.32278841  0.26018005     1.14000
C703        C  0.32306222  0.48925945  0.28056245     1.04800
O704        O  0.20733392  0.40910243  0.32210983    -0.94900
O705        O  0.17853736  0.37370859  0.22906293    -0.90600
O706        O  0.17691723  0.29737957  0.20757909    -0.83700
C707        C  0.15765378  0.33669365  0.21509220     1.11400
O708        O  0.40035213  0.42980793  0.13663300    -0.96800
Zr709      Zr  0.34183565  0.36840030  0.14926752     1.88900
O710        O  0.25091037  0.29009356  0.11479777    -0.73500
O711        O  0.22158466  0.45737925  0.20566111    -0.52700
O712        O  0.31414505  0.44028377  0.11188491    -0.97400
O713        O  0.39853837  0.34232512  0.09316406    -0.54600
O714        O  0.29730390  0.34655332  0.08189701    -0.74000
C715        C  0.26506652  0.31573127  0.07956644     0.98400
O716        O  0.20464448  0.21263277  0.17650136    -0.62800
O717        O  0.41428386  0.19677067  0.27307156    -0.57600
O718        O  0.27871326  0.19334544  0.20940886    -0.94300
O719        O  0.35531975  0.18326569  0.20725804    -0.92700
O720        O  0.32075717  0.21096033  0.36282853    -0.93100
O721        O  0.23545433  0.22766917  0.34433447    -0.91900
C722        C  0.31428238  0.16736507  0.21148698     1.17200
H723        H  0.39424063  0.28706270  0.32056697     0.33100
H724        H  0.21342105  0.30624143  0.28396477     0.44000
H725        H  0.33624101  0.26759592  0.13794083     0.37500
H726        H  0.33572343  0.43971742  0.21130171     0.34000
H727        H  0.24601054  0.29325252  0.41538434     0.25800
H728        H  0.20636448  0.47818344  0.22786825     0.31700
H729        H  0.28063569  0.43557369  0.11050025     0.37600
H730        H  0.33292514  0.19403981  0.33582690     0.32100
H731        H  0.44255461  0.18800393  0.25642279     0.31000
H732        H  0.45536107  0.26991825  0.15793190     0.32700
H733        H  0.39479514  0.36345008  0.06534817     0.31600
H734        H  0.22535373  0.21910046  0.31284447     0.35600
H735        H  0.18421362  0.20664561  0.20400323     0.28300
H736        H  0.43210852  0.44714772  0.33501494     0.32600
H737        H  0.42395595  0.42263889  0.16005671     0.35400
H738        H  0.42499226  0.21104795  0.30210459     0.28000
H739        H  0.18488741  0.22657806  0.15219557     0.40900
H740        H  0.20319222  0.44358321  0.32157410     0.31000
H741        H  0.25870052  0.34502366  0.39912471     0.38600
H742        H  0.38715196  0.31128615  0.08321828     0.30400
H743        H  0.24779323  0.47629343  0.19258462     0.30500
H744        H  0.44420785  0.45894422  0.28213639     0.30800
C745        C  0.51205143  0.79403183  0.55447397    -0.18100
C746        C  0.52053788  0.76802419  0.51517236    -0.20300
C747        C  0.55116826  0.78534324  0.48068923     0.20400
C748        C  0.57595885  0.82777104  0.48715129    -0.03200
C749        C  0.56815062  0.85349694  0.52721335    -0.06200
C750        C  0.53532571  0.83684996  0.56034343     0.20700
C751        C  0.59302725  0.89574327  0.53414570     0.18800
C752        C  0.62507105  0.91218799  0.50029340    -0.17700
C753        C  0.63186541  0.88728565  0.45962634    -0.19900
C754        C  0.60707406  0.84541163  0.45272796     0.20300
C755        C  0.61027273  0.82258643  0.41065517    -0.33000
C756        C  0.58220965  0.78302483  0.40266292     0.01000
C757        C  0.55479457  0.76292539  0.43840162    -0.24300
C758        C  0.52826219  0.86162722  0.60045305    -0.28900
C759        C  0.55627870  0.90072617  0.61019253     0.06700
C760        C  0.58703481  0.91918382  0.57595339    -0.27500
H761        H  0.48775618  0.78042479  0.58064869     0.11400
H762        H  0.50266327  0.73483816  0.51131134     0.12500
H763        H  0.64458036  0.94438126  0.50512354     0.11600
H764        H  0.65598033  0.90106389  0.43331234     0.10900
H765        H  0.63138519  0.83815042  0.38255624     0.16200
H766        H  0.53336074  0.73250415  0.43162305     0.12200
H767        H  0.50481861  0.84656554  0.62679254     0.15000
H768        H  0.60881840  0.94913199  0.58360259     0.14800
C769        C  0.48683756  0.19663767  0.53088672    -0.18100
C770        C  0.48553996  0.21605982  0.48556360    -0.20300
C771        C  0.52630286  0.22666342  0.46073487     0.20400
C772        C  0.56850552  0.21504259  0.48042308    -0.03200
C773        C  0.56987175  0.19832522  0.52697311    -0.06200
C774        C  0.52893270  0.19012215  0.55257769     0.20700
C775        C  0.61216009  0.19406515  0.54926407     0.18800
C776        C  0.65284378  0.19998694  0.52304399    -0.17700
C777        C  0.65147043  0.21411000  0.47591041    -0.19900
C778        C  0.60950634  0.22384936  0.45506269     0.20300
C779        C  0.60800899  0.24468469  0.41032127    -0.33000
C780        C  0.56652147  0.26117366  0.39227966     0.01000
C781        C  0.52569370  0.25125246  0.41785579    -0.24300
C782        C  0.53081252  0.18199171  0.60076792    -0.28900
C783        C  0.57149972  0.19304529  0.62407389     0.06700
C784        C  0.61281732  0.19062949  0.59808866    -0.27500
H785        H  0.45507717  0.19062474  0.55023087     0.11400
H786        H  0.45278481  0.22423528  0.47054337     0.12500
H787        H  0.68567449  0.19630657  0.53954369     0.11600
H788        H  0.68328002  0.22046190  0.45672604     0.10900
H789        H  0.63964945  0.24933118  0.39064134     0.16200
H790        H  0.49327104  0.26420291  0.40603232     0.12200
H791        H  0.49915714  0.17540381  0.61992934     0.15000
H792        H  0.64561593  0.19270492  0.61460185     0.14800
C793        C  0.60690202  0.54795647  0.46517316    -0.18100
C794        C  0.60533946  0.59706847  0.46750651    -0.20300
C795        C  0.64505450  0.62338829  0.47636856     0.20400
C796        C  0.68707228  0.60012624  0.48067685    -0.03200
C797        C  0.68860012  0.55094399  0.47798692    -0.06200
C798        C  0.64804810  0.52445278  0.47149795     0.20700
C799        C  0.73023304  0.52805897  0.48545914     0.18800
C800        C  0.77038317  0.55413438  0.49254461    -0.17700
C801        C  0.76892133  0.60278083  0.49503921    -0.19900
C802        C  0.72729151  0.62564399  0.49055604     0.20300
C803        C  0.72511095  0.67347040  0.49746227    -0.33000
C804        C  0.68351406  0.69667280  0.49453434     0.01000
C805        C  0.64356497  0.67216172  0.48274708    -0.24300
C806        C  0.64904285  0.47500545  0.47483789    -0.28900
C807        C  0.69013862  0.45284392  0.48519309     0.06700
C808        C  0.73068629  0.47933461  0.48843046    -0.27500
H809        H  0.57572498  0.52786023  0.46125927     0.11400
H810        H  0.57288640  0.61430999  0.46459898     0.12500
H811        H  0.80257078  0.53677314  0.49788969     0.11600
H812        H  0.80003215  0.62234694  0.50210419     0.10900
H813        H  0.75614098  0.69321065  0.50478942     0.16200
H814        H  0.61179668  0.69071946  0.47933721     0.12200
H815        H  0.61801713  0.45408405  0.47143161     0.15000
H816        H  0.76257515  0.46164275  0.49497271     0.14800
C817        C  0.48626381  0.58765749  0.43402706    -0.18100
C818        C  0.49254917  0.53926784  0.43095828    -0.20300
C819        C  0.46891727  0.50768661  0.46166097     0.20400
C820        C  0.43427031  0.52452962  0.49113553    -0.03200
C821        C  0.42681242  0.57284574  0.49303846    -0.06200
C822        C  0.45510932  0.60462219  0.46672324     0.20700
C823        C  0.39214458  0.58937828  0.52265240     0.18800
C824        C  0.36287041  0.55751193  0.54712311    -0.17700
C825        C  0.37125777  0.50957970  0.54647131    -0.19900
C826        C  0.40790213  0.49327961  0.51989294     0.20300
C827        C  0.41879363  0.44623906  0.52208454    -0.33000
C828        C  0.45427306  0.42880469  0.49413095     0.01000
C829        C  0.47876138  0.45965960  0.46325546    -0.24300
C830        C  0.45168820  0.65263230  0.47388044    -0.28900
C831        C  0.41948222  0.66886468  0.50607305     0.06700
C832        C  0.38862713  0.63740944  0.52879821    -0.27500
H833        H  0.50642083  0.61177545  0.41163934     0.11400
H834        H  0.51714591  0.52670954  0.40591229     0.12500
H835        H  0.33540894  0.56979763  0.56904923     0.11600
H836        H  0.35006760  0.48546978  0.56786020     0.10900
H837        H  0.39761439  0.42281981  0.54409377     0.16200
H838        H  0.50446752  0.44606164  0.43997362     0.12200
H839        H  0.47349831  0.67743667  0.45408907     0.15000
H840        H  0.36181874  0.65045603  0.55114380     0.14800
C841        C  0.54682896  0.53454729  0.11662353    -0.18100
C842        C  0.49923134  0.53657859  0.12036966    -0.20300
C843        C  0.47870597  0.57330977  0.14398917     0.20400
C844        C  0.50610770  0.61021040  0.16080108    -0.03200
C845        C  0.55387785  0.60805725  0.15722637    -0.06200
C846        C  0.57445877  0.56922425  0.13646870     0.20700
C847        C  0.58093389  0.64283876  0.17793968     0.18800
C848        C  0.56059655  0.68125297  0.19877362    -0.17700
C849        C  0.51330698  0.68351395  0.20213519    -0.19900
C850        C  0.48601868  0.64715031  0.18497191     0.20300
C851        C  0.43966281  0.64457085  0.19604170    -0.33000
C852        C  0.41318707  0.60498774  0.18453754     0.01000
C853        C  0.43198359  0.57147861  0.15516190    -0.24300
C854        C  0.62198999  0.56440996  0.13860312    -0.28900
C855        C  0.64863636  0.59744267  0.16226648     0.06700
C856        C  0.62769551  0.63707463  0.18066283    -0.27500
H857        H  0.56200369  0.50475181  0.10013487     0.11400
H858        H  0.47860115  0.50818547  0.10691868     0.12500
H859        H  0.58127764  0.70839209  0.21431888     0.11600
H860        H  0.49820807  0.71226296  0.22044068     0.10900
H861        H  0.42576415  0.67086453  0.21835034     0.16200
H862        H  0.41132833  0.54161318  0.14492739     0.12200
H863        H  0.63782296  0.53402404  0.12386661     0.15000
H864        H  0.64710594  0.66209956  0.20050770     0.14800
C865        C  0.59219775  0.51001192  0.57274259    -0.18100
C866        C  0.54465229  0.51098113  0.57351864    -0.20300
C867        C  0.52243634  0.55270438  0.58378374     0.20400
C868        C  0.54775186  0.59478447  0.58797775    -0.03200
C869        C  0.59554148  0.59406041  0.58595604    -0.06200
C870        C  0.61783210  0.55114517  0.58045173     0.20700
C871        C  0.62087698  0.63552696  0.59341180     0.18800
C872        C  0.59847013  0.67820023  0.59877551    -0.17700
C873        C  0.55101382  0.67865498  0.60192273    -0.19900
C874        C  0.52564288  0.63660570  0.59897610     0.20300
C875        C  0.47962737  0.63465476  0.61210870    -0.33000
C876        C  0.45509052  0.59138417  0.61372903     0.01000
C877        C  0.47609747  0.55180480  0.59498164    -0.24300
C878        C  0.66506175  0.54947286  0.58546943    -0.28900
C879        C  0.69023347  0.58953296  0.59884749     0.06700
C880        C  0.66773989  0.63306147  0.59969450    -0.27500
H881        H  0.60885190  0.47679233  0.56798225     0.11400
H882        H  0.52540888  0.47846590  0.56944418     0.12500
H883        H  0.61761141  0.71060159  0.60368483     0.11600
H884        H  0.53442946  0.71120646  0.60975993     0.10900
H885        H  0.46520158  0.66625893  0.62535993     0.16200
H886        H  0.45789228  0.51878353  0.59226882     0.12200
H887        H  0.68124183  0.51617007  0.58060897     0.15000
H888        H  0.68492508  0.66500738  0.60946582     0.14800
C889        C  0.13401214  0.47319841  0.01120930    -0.18100
C890        C  0.13484600  0.48102378  0.96273411    -0.20300
C891        C  0.09547674  0.47269974  0.93671680     0.20400
C892        C  0.05418644  0.45981000  0.96012314    -0.03200
C893        C  0.05364819  0.45076638  0.00864550    -0.06200
C894        C  0.09401916  0.45615757  0.03408152     0.20700
C895        C  0.01360356  0.43264576  0.03094850     0.18800
C896        C  0.97306984  0.42903819  0.00589833    -0.17700
C897        C  0.97335670  0.43866692  0.95792600    -0.19900
C898        C  0.01432891  0.45171534  0.93459586     0.20300
C899        C  0.01712407  0.45127258  0.88611752    -0.33000
C900        C  0.05983977  0.45612589  0.86260062     0.01000
C901        C  0.09770869  0.47216893  0.88780530    -0.24300
C902        C  0.09463115  0.44097376  0.08101165    -0.28900
C903        C  0.05689001  0.41590845  0.10143971     0.06700
C904        C  0.01562118  0.41453570  0.07664775    -0.27500
H905        H  0.16532301  0.47773212  0.03034828     0.11400
H906        H  0.16681074  0.49121576  0.94539425     0.12500
H907        H  0.94168834  0.41678650  0.02303700     0.11600
H908        H  0.94224569  0.43297678  0.93872180     0.10900
H909        H  0.98671354  0.44018566  0.86830822     0.16200
H910        H  0.13015395  0.47931980  0.87015830     0.12200
H911        H  0.12572978  0.44607591  0.10020801     0.15000
H912        H  0.98563313  0.39600940  0.09055537     0.14800
C913        C  0.02679086  0.89602887  0.99925196    -0.18100
C914        C  0.01743947  0.87221451  0.95881517    -0.20300
C915        C  0.03813603  0.82923533  0.95067958     0.20400
C916        C  0.06922131  0.81022860  0.98274139    -0.03200
C917        C  0.07815583  0.83395421  0.02374913    -0.06200
C918        C  0.05607512  0.87662254  0.03241171     0.20700
C919        C  0.10833261  0.81451602  0.05648744     0.18800
C920        C  0.13073458  0.77257130  0.04727045    -0.17700
C921        C  0.12261980  0.74949447  0.00586800    -0.19900
C922        C  0.09164046  0.76785742  0.97358894     0.20300
C923        C  0.08423876  0.74597693  0.93130819    -0.33000
C924        C  0.05477797  0.76619130  0.89853713     0.01000
C925        C  0.03019161  0.80644256  0.90956806    -0.24300
C926        C  0.06195611  0.89798504  0.07498335    -0.28900
C927        C  0.08916829  0.87683253  0.10895966     0.06700
C928        C  0.11375361  0.83617432  0.09888443    -0.27500
H929        H  0.01082907  0.92930180  0.00476175     0.11400
H930        H  0.99436202  0.88754955  0.93366664     0.12500
H931        H  0.15422104  0.75747991  0.07221623     0.11600
H932        H  0.14039857  0.71729257  0.99916563     0.10900
H933        H  0.10366317  0.71538270  0.92239289     0.16200
H934        H  0.00832355  0.82314448  0.88396969     0.12200
H935        H  0.04319254  0.92932113  0.08290648     0.15000
H936        H  0.13440952  0.81919687  0.12537260     0.14800
C937        C  0.09375289  0.15025485  0.91922872    -0.18100
C938        C  0.04631415  0.15040833  0.91685003    -0.20300
C939        C  0.02224056  0.10898221  0.90685817     0.20400
C940        C  0.04547785  0.06628988  0.90366182    -0.03200
C941        C  0.09305256  0.06587081  0.90757839    -0.06200
C942        C  0.11733128  0.10834952  0.91329953     0.20700
C943        C  0.11651412  0.02366351  0.90187467     0.18800
C944        C  0.09209908  0.98159437  0.89519681    -0.17700
C945        C  0.04497273  0.98231126  0.88976304    -0.19900
C946        C  0.02178373  0.02483827  0.89233604     0.20300
C947        C  0.97627281  0.02731954  0.87961596    -0.33000
C948        C  0.95343739  0.07058623  0.87887132     0.01000
C949        C  0.97614969  0.11045842  0.89592233    -0.24300
C950        C  0.16474143  0.10892441  0.90982004    -0.28900
C951        C  0.18851456  0.06811994  0.89824425     0.06700
C952        C  0.16392886  0.02490553  0.89809506    -0.27500
H953        H  0.11207678  0.18321451  0.92375902     0.11400
H954        H  0.02879120  0.18341795  0.91982686     0.12500
H955        H  0.10968762  0.94876381  0.89113954     0.11600
H956        H  0.02703766  0.95013409  0.88121544     0.10900
H957        H  0.96053960  0.99578260  0.86686581     0.16200
H958        H  0.95923533  0.14367277  0.89830001     0.12200
H959        H  0.18234585  0.14205333  0.91457263     0.15000
H960        H  0.18027109  0.99237011  0.89042500     0.14800
C961        C  0.08063676  0.98378721  0.31378664    -0.18100
C962        C  0.12803977  0.98169564  0.31299070    -0.20300
C963        C  0.15444432  0.02078687  0.32543543     0.20400
C964        C  0.13317150  0.06080109  0.34283204    -0.03200
C965        C  0.08523671  0.06275170  0.34407594    -0.06200
C966        C  0.05918557  0.02480952  0.32759084     0.20700
C967        C  0.06360605  0.10394233  0.35827345     0.18800
C968        C  0.09021833  0.14160740  0.37412905    -0.17700
C969        C  0.13795608  0.13985529  0.37243836    -0.19900
C970        C  0.15967752  0.10031256  0.35506621     0.20300
C971        C  0.20680210  0.10115705  0.34544203    -0.33000
C972        C  0.22692061  0.06386432  0.32186421     0.01000
C973        C  0.20116769  0.02235974  0.31580551    -0.24300
C974        C  0.01244676  0.02955042  0.32202657    -0.28900
C975        C  0.99047228  0.07130095  0.33377426     0.06700
C976        C  0.01613512  0.10767381  0.35377570    -0.27500
H977        H  0.06083001  0.95412740  0.30168910     0.11400
H978        H  0.14400760  0.95056390  0.30012799     0.12500
H979        H  0.07419241  0.17326821  0.38576196     0.11600
H980        H  0.15779958  0.17030165  0.38256254     0.10900
H981        H  0.22684008  0.13258976  0.35197573     0.16200
H982        H  0.21582704  0.99325106  0.29786761     0.12200
H983        H  0.99408548  0.00153211  0.30523855     0.15000
H984        H  0.99966109  0.13959799  0.36397554     0.14800
C985        C  0.87041334  0.14231763  0.95130400    -0.18100
C986        C  0.86335925  0.09375422  0.95282809    -0.20300
C987        C  0.89345025  0.06480850  0.97741817     0.20400
C988        C  0.92803122  0.08488871  0.00456296    -0.03200
C989        C  0.93451218  0.13384504  0.00386467    -0.06200
C990        C  0.90683761  0.16224835  0.97547978     0.20700
C991        C  0.96903670  0.15425095  0.03092214     0.18800
C992        C  0.99329195  0.12567698  0.06215604    -0.17700
C993        C  0.98791245  0.07671600  0.06181714    -0.19900
C994        C  0.95668654  0.05606967  0.03160890     0.20300
C995        C  0.95324127  0.00727652  0.02804106    -0.33000
C996        C  0.92109499  0.98731295  0.99806835     0.01000
C997        C  0.89027131  0.01618570  0.97435712    -0.24300
C998        C  0.91609519  0.21013769  0.97149720    -0.28900
C999        C  0.95221495  0.23080828  0.99613367     0.06700
C1000       C  0.97805694  0.20278120  0.02662372    -0.27500
H1001       H  0.84825438  0.16411509  0.93017653     0.11400
H1002       H  0.83588640  0.07874325  0.93284631     0.12500
H1003       H  0.01773955  0.14108326  0.08551272     0.11600
H1004       H  0.00855576  0.05505979  0.08466818     0.10900
H1005       H  0.97529030  0.98499203  0.04872786     0.16200
H1006       H  0.86347774  0.00067470  0.95377086     0.12200
H1007       H  0.89371484  0.23160175  0.95031767     0.15000
H1008       H  0.00423886  0.21891518  0.04751932     0.14800
C1009       C  0.10596463  0.10427591  0.02958326    -0.18100
C1010       C  0.10535825  0.05519015  0.02952695    -0.20300
C1011       C  0.14556471  0.03119601  0.02048071     0.20400
C1012       C  0.18703453  0.05677990  0.01290338    -0.03200
C1013       C  0.18758142  0.10604353  0.01378465    -0.06200
C1014       C  0.14652254  0.13000925  0.02142049     0.20700
C1015       C  0.22828568  0.13137582  0.00244176     0.18800
C1016       C  0.26862872  0.10766842  0.99292495    -0.17700
C1017       C  0.26816182  0.05878430  0.99227660    -0.19900
C1018       C  0.22733830  0.03338463  0.00108184     0.20300
C1019       C  0.22578657  0.98503326  0.99671504    -0.33000
C1020       C  0.18485750  0.95954946  0.00480870     0.01000
C1021       C  0.14487160  0.98226877  0.01704246    -0.24300
C1022       C  0.14611216  0.17918726  0.01695921    -0.28900
C1023       C  0.18610616  0.20369554  0.00352083     0.06700
C1024       C  0.22723571  0.17998451  0.99769955    -0.27500
H1025       H  0.07456029  0.12258499  0.03303452     0.11400
H1026       H  0.07325789  0.03603896  0.03435631     0.12500
H1027       H  0.30004042  0.12695487  0.98420170     0.11600
H1028       H  0.29927121  0.04095170  0.98327145     0.10900
H1029       H  0.25677530  0.96668809  0.98804249     0.16200
H1030       H  0.11363996  0.96208747  0.02343307     0.12200
H1031       H  0.11474807  0.19811913  0.02198686     0.15000
H1032       H  0.25831538  0.19970796  0.98831651     0.14800
loop_ 
_geom_bond_atom_site_label_1 
_geom_bond_atom_site_label_2 
_geom_bond_distance 
_geom_bond_site_symmetry_2 
_ccdc_geom_bond_type 
C1            C2   1.390   1_554  A
C1            C6   1.387       .  A
C1         C1020   1.451       .  S
C2            C3   1.404       .  A
C2            H7   1.084       .  S
C3            C4   1.428   1_556  A
C3          C331   1.504       .  S
C4            C5   1.429       .  A
C4            H8   1.082       .  S
C5            C6   1.397       .  A
C5          C635   1.499       .  S
C6            H9   1.085       .  S
C10          C11   1.388   1_556  A
C10          C15   1.392       .  A
C10         C999   1.473       .  S
C11          C12   1.402       .  A
C11          H16   1.084       .  S
C12          C13   1.434   1_554  A
C12         C491   1.504       .  S
C13          C14   1.436       .  A
C13          H17   1.082       .  S
C14          C15   1.404       .  A
C14         C256   1.510       .  S
C15          H18   1.084       .  S
C19          C20   1.397       .  A
C19          C24   1.405       .  A
C19         C975   1.488       .  S
C20          C21   1.391       .  A
C20          H25   1.084       .  S
C21          C22   1.415       .  A
C21         C571   1.476   1_545  S
C22          C23   1.419       .  A
C22          H26   1.083       .  S
C23          C24   1.404       .  A
C23         C506   1.482       .  S
C24          H27   1.083       .  S
C28          C29   1.399       .  A
C28          C33   1.398       .  A
C28         C951   1.495       .  S
C29          C30   1.398       .  A
C29          H34   1.075       .  S
C30          C31   1.424       .  A
C30         C164   1.496       .  S
C31          C32   1.422       .  A
C31          H35   1.083       .  S
C32          C33   1.399       .  A
C32         C338   1.492   1_545  S
C33          H36   1.081   1_545  S
C37          C38   1.380       .  A
C37          C42   1.393       .  A
C37         C927   1.463       .  S
C38          C39   1.390       .  A
C38          H43   1.086       .  S
C39          C40   1.423       .  A
C39         C636   1.473       .  S
C40          C41   1.428       .  A
C40          H44   1.082       .  S
C41          C42   1.403       .  A
C41         C569   1.492   1_455  S
C42          H45   1.084       .  S
C46          C47   1.404       .  A
C46          C51   1.394       .  A
C46         C900   1.496       .  S
C47          C48   1.405       .  A
C47          H52   1.082       .  S
C48          C49   1.428       .  A
C48         C179   1.497       .  S
C49          C50   1.427       .  A
C49          H53   1.082       .  S
C50          C51   1.399       .  A
C50         C248   1.494   1_455  S
C51          H54   1.083   1_455  S
C55          C56   1.380   1_556  A
C55          C60   1.394       .  A
C55         C996   1.468       .  S
C56          C57   1.398       .  A
C56          H61   1.081       .  S
C57          C58   1.438   1_554  A
C57         C570   1.513       .  S
C58          C59   1.441       .  A
C58          H62   1.082   1_556  S
C59          C60   1.405       .  A
C59         C410   1.516       .  S
C60          H63   1.083       .  S
C64          C65   1.381   1_556  A
C64          C69   1.387       .  A
C64        C1023   1.455   1_556  S
C65          C66   1.404       .  A
C65          H70   1.084       .  S
C66          C67   1.421   1_554  A
C66         C715   1.494       .  S
C67          C68   1.426       .  A
C67          H71   1.083       .  S
C68          C69   1.403       .  A
C68         C172   1.490       .  S
C69          H72   1.084       .  S
C73          C74   1.398       .  A
C73          C78   1.391       .  A
C73         C948   1.492       .  S
C74          C75   1.405       .  A
C74          H79   1.076       .  S
C75          C76   1.432       .  A
C75         C263   1.508       .  S
C76          C77   1.429       .  A
C76          H80   1.082       .  S
C77          C78   1.395       .  A
C77         C412   1.501   1_545  S
C78          H81   1.080       .  S
C82          C83   1.391       .  A
C82          C87   1.394       .  A
C82         C972   1.488       .  S
C83          C84   1.403       .  A
C83          H88   1.083       .  S
C84          C85   1.417       .  A
C84         C722   1.475       .  S
C85          C86   1.413       .  A
C85          H89   1.083       .  S
C86          C87   1.408       .  A
C86         C637   1.480   1_545  S
C87          H90   1.076       .  S
C91          C92   1.391       .  A
C91          C96   1.388       .  A
C91         C924   1.465       .  S
C92          C93   1.396       .  A
C92          H97   1.086       .  S
C93          C94   1.429       .  A
C93         C323   1.485       .  S
C94          C95   1.428       .  A
C94          H98   1.082       .  S
C95          C96   1.394       .  A
C95         C411   1.483   1_455  S
C96          H99   1.087   1_455  S
C100        C101   1.403       .  A
C100        C105   1.399       .  A
C100        C903   1.496       .  S
C101        C102   1.399       .  A
C101        H106   1.081       .  S
C102        C103   1.416       .  A
C102        C707   1.476       .  S
C103        C104   1.414       .  A
C103        H107   1.083       .  S
C104        C105   1.398       .  A
C104        C499   1.472   1_455  S
C105        H108   1.081   1_455  S
C109        C110   1.395       .  A
C109        C114   1.398       .  A
C109        C876   1.498       .  S
C110        C111   1.402       .  A
C110        H115   1.076       .  S
C111        C112   1.429       .  A
C111        C319   1.505       .  S
C112        C113   1.432       .  A
C112        H116   1.082       .  S
C113        C114   1.401       .  A
C113        C159   1.507       .  S
C114        H117   1.075       .  S
C118        C119   1.391       .  A
C118        C123   1.397       .  A
C118        C852   1.481       .  S
C119        C120   1.397       .  A
C119        H124   1.083       .  S
C120        C121   1.414       .  A
C120        C656   1.466       .  S
C121        C122   1.416       .  A
C121        H125   1.083       .  S
C122        C123   1.405       .  A
C122        C703   1.480       .  S
C123        H126   1.084       .  S
C127        C128   1.394       .  A
C127        C132   1.390       .  A
C127        C828   1.473       .  S
C128        C129   1.404       .  A
C128        H133   1.084       .  S
C129        C130   1.425       .  A
C129        C158   1.497       .  S
C130        C131   1.425       .  A
C130        H134   1.083       .  S
C131        C132   1.402       .  A
C131        C701   1.492       .  S
C132        H135   1.084       .  S
Zr136       O137   2.442       .  S
Zr136       O138   2.468       .  S
Zr136       O139   2.491       .  S
Zr136       O142   2.472       .  S
Zr136       O144   2.380       .  S
Zr136       O145   2.393       .  S
Zr136       O146   2.410       .  S
Zr136       O147   2.406       .  S
O137        H193   0.991       .  S
O137        H201   0.991       .  S
O138        C158   1.293       .  A
O139        C160   1.291       .  A
O140       Zr150   2.445       .  S
O140        C159   1.283       .  A
O141       Zr149   2.435       .  S
O141        C160   1.286       .  A
O142        C159   1.297       .  A
O143       Zr151   2.417       .  S
O143        C158   1.277       .  A
O144       Zr149   2.395       .  S
O144       Zr151   2.390       .  S
O145       Zr150   2.407       .  S
O145       Zr151   2.391       .  S
O145        H180   0.966       .  S
O146       Zr149   2.400       .  S
O146       Zr166   2.402       .  S
O146        H183   0.965       .  S
O147       Zr150   2.400       .  S
O147       Zr166   2.389       .  S
Zr148       O173   2.441       .  S
Zr148       O167   2.445       .  S
Zr148       O175   2.478       .  S
Zr148       O163   2.469       .  S
Zr148       O154   2.407       .  S
Zr148       O155   2.412       .  S
Zr148       O156   2.383       .  S
Zr148       O157   2.385       .  S
Zr149       O168   2.434       .  S
Zr149       O161   2.437       .  S
Zr149       O162   2.429       .  S
Zr149       O155   2.416       .  S
Zr149       O156   2.403       .  S
Zr150       O152   2.436       .  S
Zr150       O174   2.437       .  S
Zr150       O176   2.444       .  S
Zr150       O154   2.391       .  S
Zr150       O157   2.394       .  S
Zr151       O177   2.439       .  S
Zr151       O178   2.436       .  S
Zr151       O153   2.437       .  S
Zr151       O154   2.401       .  S
Zr151       O155   2.393       .  S
O152        H189   0.990       .  S
O153        H184   0.990       .  S
O153        H198   0.990       .  S
O155        H181   0.965       .  S
O156       Zr166   2.386       .  S
O157       Zr166   2.380       .  S
O157        H182   0.966       .  S
C160        C213   1.498       .  S
O161        H197   0.990       .  S
O162        C164   1.280       .  A
O163        C164   1.295       .  A
O165       Zr166   2.434       .  S
O165        H194   0.990       .  S
Zr166       O169   2.435       .  S
Zr166       O170   2.440       .  S
Zr166       O171   2.418       .  S
O167        C172   1.289       .  A
O168        H185   0.990       .  S
O168        H200   0.990       .  S
O169        H186   0.990       .  S
O170        H190   0.990       .  S
O170        H199   0.990       .  S
O171        C172   1.278       .  A
O173        H192   0.990       .  S
O173        H196   0.991       .  S
O174        H188   0.990       .  S
O174        H195   0.990       .  S
O175        C179   1.291       .  A
O176        C179   1.287       .  A
O177        H187   0.990       .  S
O178        H191   0.990       .  S
C202        C203   1.382       .  A
C202        C207   1.391       .  A
C202        C807   1.464       .  S
C203        C204   1.407       .  A
C203        H208   1.085       .  S
C204        C205   1.430       .  A
C204        C486   1.505       .  S
C205        C206   1.434       .  A
C205        H209   1.082       .  S
C206        C207   1.406       .  A
C206        C242   1.508       .  S
C207        H210   1.084       .  S
C211        C212   1.406       .  A
C211        C216   1.401       .  A
C211        C783   1.508       .  S
C212        C213   1.399       .  A
C212        H217   1.078       .  S
C213        C214   1.425       .  A
C214        C215   1.427       .  A
C214        H218   1.082       .  S
C215        C216   1.404       .  A
C215        C243   1.495       .  S
C216        H219   1.079       .  S
Zr220       O221   2.440       .  S
Zr220       O222   2.464       .  S
Zr220       O223   2.472       .  S
Zr220       O226   2.467       .  S
Zr220       O228   2.383       .  S
Zr220       O229   2.388       .  S
Zr220       O230   2.415       .  S
Zr220       O231   2.418       .  S
O221        H277   0.991       .  S
O221        H285   0.990       .  S
O222        C242   1.293       .  A
O223        C244   1.295       .  A
O224       Zr234   2.443       .  S
O224        C243   1.287       .  A
O225       Zr233   2.438       .  S
O225        C244   1.282       .  A
O226        C243   1.288       .  A
O227       Zr235   2.437       .  S
O227        C242   1.280       .  A
O228       Zr233   2.411       .  S
O228       Zr235   2.391       .  S
O229       Zr234   2.401       .  S
O229       Zr235   2.380       .  S
O229        H264   0.966       .  S
O230       Zr233   2.407       .  S
O230       Zr250   2.394       .  S
O230        H267   0.965       .  S
O231       Zr234   2.394       .  S
O231       Zr250   2.409       .  S
Zr232       O257   2.441       .  S
Zr232       O251   2.485       .  S
Zr232       O259   2.462       .  S
Zr232       O247   2.475       .  S
Zr232       O238   2.413       .  S
Zr232       O239   2.416       .  S
Zr232       O240   2.375       .  S
Zr232       O241   2.388       .  S
Zr233       O252   2.436       .  S
Zr233       O245   2.435       .  S
Zr233       O246   2.438       .  S
Zr233       O239   2.401       .  S
Zr233       O240   2.392       .  S
Zr234       O236   2.434       .  S
Zr234       O258   2.439       .  S
Zr234       O260   2.450       .  S
Zr234       O238   2.401       .  S
Zr234       O241   2.407       .  S
Zr235       O261   2.436       .  S
Zr235       O262   2.436       .  S
Zr235       O237   2.436       .  S
Zr235       O238   2.399       .  S
Zr235       O239   2.403       .  S
O236        H273   0.990       .  S
O237        H268   0.991       .  S
O237        H282   0.990       .  S
O239        H265   0.965       .  S
O240       Zr250   2.388       .  S
O241       Zr250   2.392       .  S
O241        H266   0.966       .  S
C244        C365   1.496       .  S
O245        H281   0.990       .  S
O246        C248   1.288       .  A
O247        C248   1.290       .  A
O249       Zr250   2.438       .  S
O249        H278   0.990       .  S
Zr250       O253   2.437       .  S
Zr250       O254   2.441       .  S
Zr250       O255   2.428       .  S
O251        C256   1.297       .  A
O252        H269   0.990       .  S
O252        H284   0.990       .  S
O253        H270   0.990       .  S
O254        H274   0.990       .  S
O254        H283   0.990       .  S
O255        C256   1.278       .  A
O257        H276   0.990       .  S
O257        H280   0.990       .  S
O258        H272   0.991       .  S
O258        H279   0.990       .  S
O259        C263   1.293       .  A
O260        C263   1.284       .  A
O261        H271   0.990       .  S
O262        H275   0.990       .  S
C286        C287   1.377       .  A
C286        C291   1.392       .  A
C286        C831   1.457       .  S
C287        C288   1.393       .  A
C287        H292   1.083       .  S
C288        C289   1.423       .  A
C288        C649   1.489       .  S
C289        C290   1.428       .  A
C289        H293   1.083       .  S
C290        C291   1.402       .  A
C290        C317   1.494       .  S
C291        H294   1.080       .  S
Zr295       O296   2.438       .  S
Zr295       O297   2.465       .  S
Zr295       O298   2.444       .  S
Zr295       O301   2.462       .  S
Zr295       O303   2.374       .  S
Zr295       O304   2.380       .  S
Zr295       O305   2.410       .  S
Zr295       O306   2.405       .  S
O296        H352   0.990       .  S
O296        H360   0.990       .  S
O297        C317   1.294       .  A
O298        C319   1.291       .  A
O299       Zr309   2.429       .  S
O299        C318   1.283       .  A
O300       Zr308   2.475       .  S
O300        C319   1.288       .  A
O301        C318   1.291       .  A
O302       Zr310   2.419       .  S
O302        C317   1.279       .  A
O303       Zr308   2.394       .  S
O303       Zr310   2.381       .  S
O304       Zr309   2.395       .  S
O304       Zr310   2.377       .  S
O304        H339   0.966       .  S
O305       Zr308   2.408       .  S
O305       Zr325   2.399       .  S
O305        H342   0.966       .  S
O306       Zr309   2.397       .  S
O306       Zr325   2.401       .  S
Zr307       O332   2.441       .  S
Zr307       O326   2.453       .  S
Zr307       O334   2.460       .  S
Zr307       O322   2.465       .  S
Zr307       O313   2.403       .  S
Zr307       O314   2.410       .  S
Zr307       O315   2.384       .  S
Zr307       O316   2.384       .  S
Zr308       O327   2.436       .  S
Zr308       O320   2.435       .  S
Zr308       O321   2.451       .  S
Zr308       O314   2.411       .  S
Zr308       O315   2.408       .  S
Zr309       O311   2.436       .  S
Zr309       O333   2.437       .  S
Zr309       O335   2.439       .  S
Zr309       O313   2.403       .  S
Zr309       O316   2.402       .  S
Zr310       O336   2.435       .  S
Zr310       O337   2.435       .  S
Zr310       O312   2.437       .  S
Zr310       O313   2.396       .  S
Zr310       O314   2.395       .  S
O311        H348   0.991       .  S
O312        H343   0.990       .  S
O312        H357   0.990       .  S
O314        H340   0.965       .  S
O315       Zr325   2.384       .  S
O316       Zr325   2.382       .  S
O316        H341   0.966       .  S
C318        C374   1.478       .  S
O320        H356   0.990       .  S
O321        C323   1.288       .  A
O322        C323   1.291       .  A
O324       Zr325   2.434       .  S
O324        H353   0.990       .  S
Zr325       O328   2.435       .  S
Zr325       O329   2.438       .  S
Zr325       O330   2.441       .  S
O326        C331   1.291       .  A
O327        H344   0.990       .  S
O327        H359   0.990       .  S
O328        H345   0.990       .  S
O329        H349   0.990       .  S
O329        H358   0.990       .  S
O330        C331   1.282       .  A
O332        H351   0.990       .  S
O332        H355   0.990       .  S
O333        H347   0.990       .  S
O333        H354   0.990       .  S
O334        C338   1.292       .  A
O335        C338   1.282       .  A
O336        H346   0.990       .  S
O337        H350   0.990       .  S
C361        C362   1.398       .  A
C361        C366   1.401       .  A
C361        C879   1.497       .  S
C362        C363   1.397       .  A
C362        H367   1.080       .  S
C363        C364   1.423       .  A
C363        C431   1.496       .  S
C364        C365   1.426       .  A
C364        H368   1.083       .  S
C365        C366   1.401       .  A
C366        H369   1.076       .  S
C370        C371   1.393       .  A
C370        C375   1.392       .  A
C370        C759   1.468       .  S
C371        C372   1.397       .  A
C371        H376   1.086       .  S
C372        C373   1.422       .  A
C372        C416   1.479       .  S
C373        C374   1.422       .  A
C373        H377   1.082       .  S
C374        C375   1.398       .  A
C375        H378   1.087       .  S
C379        C380   1.385       .  A
C379        C384   1.396       .  A
C379        C804   1.459       .  S
C380        C381   1.397       .  A
C380        H385   1.085       .  S
C381        C382   1.434       .  A
C381        C575   1.505       .  S
C382        C383   1.435       .  A
C382        H386   1.082       .  S
C383        C384   1.408       .  A
C383        C424   1.516       .  S
C384        H387   1.083       .  S
Zr388       O389   2.438       .  S
Zr388       O390   2.483       .  S
Zr388       O391   2.460       .  S
Zr388       O394   2.469       .  S
Zr388       O396   2.372       .  S
Zr388       O397   2.380       .  S
Zr388       O398   2.410       .  S
Zr388       O399   2.413       .  S
O389        H445   0.989       .  S
O389        H453   0.990       .  S
O390        C410   1.298       .  A
O391        C412   1.295       .  A
O392       Zr402   2.437       .  S
O392        C411   1.284       .  A
O393       Zr401   2.450       .  S
O393        C412   1.283       .  A
O394        C411   1.293       .  A
O395       Zr403   2.451       .  S
O395        C410   1.283       .  A
O396       Zr401   2.400       .  S
O396       Zr403   2.383       .  S
O397       Zr402   2.405       .  S
O397       Zr403   2.378       .  S
O397        H432   0.966       .  S
O398       Zr401   2.406       .  S
O398       Zr418   2.404       .  S
O398        H435   0.966       .  S
O399       Zr402   2.397       .  S
O399       Zr418   2.411       .  S
Zr400       O425   2.439       .  S
Zr400       O419   2.471       .  S
Zr400       O427   2.461       .  S
Zr400       O415   2.467       .  S
Zr400       O406   2.410       .  S
Zr400       O407   2.414       .  S
Zr400       O408   2.377       .  S
Zr400       O409   2.380       .  S
Zr401       O420   2.437       .  S
Zr401       O413   2.438       .  S
Zr401       O414   2.431       .  S
Zr401       O407   2.403       .  S
Zr401       O408   2.404       .  S
Zr402       O404   2.435       .  S
Zr402       O426   2.438       .  S
Zr402       O428   2.443       .  S
Zr402       O406   2.402       .  S
Zr402       O409   2.400       .  S
Zr403       O429   2.436       .  S
Zr403       O430   2.435       .  S
Zr403       O405   2.436       .  S
Zr403       O406   2.405       .  S
Zr403       O407   2.407       .  S
O404        H441   0.990       .  S
O405        H436   0.990       .  S
O405        H450   0.990       .  S
O407        H433   0.966       .  S
O408       Zr418   2.380       .  S
O409       Zr418   2.377       .  S
O409        H434   0.966       .  S
O413        H449   0.990       .  S
O414        C416   1.283       .  A
O415        C416   1.291       .  A
O417       Zr418   2.435       .  S
O417        H446   0.990       .  S
Zr418       O421   2.435       .  S
Zr418       O422   2.439       .  S
Zr418       O423   2.454       .  S
O419        C424   1.295       .  A
O420        H437   0.990       .  S
O420        H452   0.990       .  S
O421        H438   0.990       .  S
O422        H442   0.990       .  S
O422        H451   0.990       .  S
O423        C424   1.284       .  A
O425        H444   0.990       .  S
O425        H448   0.990       .  S
O426        H440   0.990       .  S
O426        H447   0.990       .  S
O427        C431   1.294       .  A
O428        C431   1.283       .  A
O429        H439   0.990       .  S
O430        H443   0.990       .  S
C454        C455   1.396       .  A
C454        C459   1.402       .  A
C454        C780   1.490       .  S
C455        C456   1.395       .  A
C455        H460   1.081       .  S
C456        C457   1.410       .  A
C456        C702   1.466       .  S
C457        C458   1.413       .  A
C457        H461   1.083       .  S
C458        C459   1.401       .  A
C458        C485   1.471       .  S
C459        H462   1.082       .  S
Zr463       O464   2.445       .  S
Zr463       O465   2.449       .  S
Zr463       O466   2.461       .  S
Zr463       O469   2.428       .  S
Zr463       O471   2.378       .  S
Zr463       O472   2.384       .  S
Zr463       O473   2.400       .  S
Zr463       O474   2.404       .  S
O464        H520   0.991       .  S
O464        H528   0.990       .  S
O465        C485   1.286       .  A
O466        C487   1.287       .  A
O467       Zr477   2.470       .  S
O467        C486   1.288       .  A
O468       Zr476   2.429       .  S
O468        C487   1.283       .  A
O469        C486   1.288       .  A
O470       Zr478   2.421       .  S
O470        C485   1.280       .  A
O471       Zr476   2.405       .  S
O471       Zr478   2.379       .  S
O472       Zr477   2.397       .  S
O472       Zr478   2.378       .  S
O472        H507   0.966       .  S
O473       Zr476   2.410       .  S
O473       Zr493   2.389       .  S
O473        H510   0.965       .  S
O474       Zr477   2.400       .  S
O474       Zr493   2.389       .  S
Zr475       O500   2.444       .  S
Zr475       O494   2.460       .  S
Zr475       O502   2.461       .  S
Zr475       O490   2.465       .  S
Zr475       O481   2.413       .  S
Zr475       O482   2.407       .  S
Zr475       O483   2.373       .  S
Zr475       O484   2.393       .  S
Zr476       O495   2.437       .  S
Zr476       O488   2.435       .  S
Zr476       O489   2.457       .  S
Zr476       O482   2.404       .  S
Zr476       O483   2.397       .  S
Zr477       O479   2.437       .  S
Zr477       O501   2.436       .  S
Zr477       O503   2.442       .  S
Zr477       O481   2.409       .  S
Zr477       O484   2.406       .  S
Zr478       O504   2.438       .  S
Zr478       O505   2.436       .  S
Zr478       O480   2.438       .  S
Zr478       O481   2.404       .  S
Zr478       O482   2.390       .  S
O479        H516   0.990       .  S
O480        H511   0.990       .  S
O480        H525   0.990       .  S
O482        H508   0.965       .  S
O483       Zr493   2.387       .  S
O484       Zr493   2.381       .  S
O484        H509   0.966       .  S
C487        C542   1.472       .  S
O488        H524   0.990       .  S
O489        C491   1.285       .  A
O490        C491   1.295       .  A
O492       Zr493   2.436       .  S
O492        H521   0.990       .  S
Zr493       O496   2.437       .  S
Zr493       O497   2.436       .  S
Zr493       O498   2.412       .  S
O494        C499   1.289       .  A
O495        H512   0.990       .  S
O495        H527   0.990       .  S
O496        H513   0.990       .  S
O497        H517   0.990       .  S
O497        H526   0.990       .  S
O498        C499   1.277       .  A
O500        H519   0.990       .  S
O500        H523   0.990       .  S
O501        H515   0.990       .  S
O501        H522   0.990       .  S
O502        C506   1.289       .  A
O503        C506   1.285       .  A
O504        H514   0.990       .  S
O505        H518   0.990       .  S
C529        C530   1.375       .  A
C529        C534   1.386       .  A
C529        C756   1.457       .  S
C530        C531   1.401       .  A
C530        H535   1.086       .  S
C531        C532   1.435       .  A
C531        C583   1.495       .  S
C532        C533   1.432       .  A
C532        H536   1.082       .  S
C533        C534   1.399       .  A
C533        C641   1.495       .  S
C534        H537   1.086       .  S
C538        C539   1.396       .  A
C538        C543   1.400       .  A
C538        C855   1.481       .  S
C539        C540   1.391       .  A
C539        H544   1.085       .  S
C540        C541   1.412       .  A
C540        C590   1.473       .  S
C541        C542   1.418       .  A
C541        H545   1.083       .  S
C542        C543   1.402       .  A
C543        H546   1.084       .  S
Zr547       O548   2.443       .  S
Zr547       O549   2.460       .  S
Zr547       O550   2.472       .  S
Zr547       O553   2.464       .  S
Zr547       O555   2.375       .  S
Zr547       O556   2.381       .  S
Zr547       O557   2.416       .  S
Zr547       O558   2.403       .  S
O548        H604   0.991       .  S
O548        H612   0.990       .  S
O549        C569   1.291       .  A
O550        C571   1.290       .  A
O551       Zr561   2.451       .  S
O551        C570   1.282       .  A
O552       Zr560   2.424       .  S
O552        C571   1.282       .  A
O553        C570   1.296       .  A
O554       Zr562   2.426       .  S
O554        C569   1.279       .  A
O555       Zr560   2.407       .  S
O555       Zr562   2.382       .  S
O556       Zr561   2.402       .  S
O556       Zr562   2.384       .  S
O556        H591   0.965       .  S
O557       Zr560   2.405       .  S
O557       Zr577   2.403       .  S
O557        H594   0.965       .  S
O558       Zr561   2.398       .  S
O558       Zr577   2.397       .  S
Zr559       O584   2.443       .  S
Zr559       O578   2.445       .  S
Zr559       O586   2.463       .  S
Zr559       O574   2.479       .  S
Zr559       O565   2.405       .  S
Zr559       O566   2.401       .  S
Zr559       O567   2.377       .  S
Zr559       O568   2.383       .  S
Zr560       O579   2.436       .  S
Zr560       O572   2.435       .  S
Zr560       O573   2.441       .  S
Zr560       O566   2.407       .  S
Zr560       O567   2.394       .  S
Zr561       O563   2.437       .  S
Zr561       O585   2.437       .  S
Zr561       O587   2.420       .  S
Zr561       O565   2.410       .  S
Zr561       O568   2.398       .  S
Zr562       O588   2.435       .  S
Zr562       O589   2.434       .  S
Zr562       O564   2.437       .  S
Zr562       O565   2.407       .  S
Zr562       O566   2.393       .  S
O563        H600   0.990       .  S
O564        H595   0.990       .  S
O564        H609   0.990       .  S
O566        H592   0.965       .  S
O567       Zr577   2.388       .  S
O568       Zr577   2.383       .  S
O568        H593   0.966       .  S
O572        H608   0.990       .  S
O573        C575   1.282       .  A
O574        C575   1.298       .  A
O576       Zr577   2.440       .  S
O576        H605   0.990       .  S
Zr577       O580   2.437       .  S
Zr577       O581   2.439       .  S
Zr577       O582   2.441       .  S
O578        C583   1.290       .  A
O579        H596   0.990       .  S
O579        H611   0.990       .  S
O580        H597   0.990       .  S
O581        H601   0.990       .  S
O581        H610   0.990       .  S
O582        C583   1.282       .  A
O584        H603   0.990       .  S
O584        H607   0.990       .  S
O585        H599   0.990       .  S
O585        H606   0.990       .  S
O586        C590   1.289       .  A
O587        C590   1.281       .  A
O588        H598   0.990       .  S
O589        H602   0.990       .  S
Zr613       O614   2.444       .  S
Zr613       O615   2.478       .  S
Zr613       O616   2.460       .  S
Zr613       O619   2.445       .  S
Zr613       O621   2.383       .  S
Zr613       O622   2.384       .  S
Zr613       O623   2.408       .  S
Zr613       O624   2.409       .  S
O614        H670   0.990       .  S
O614        H678   0.990       .  S
O615        C635   1.295       .  A
O616        C637   1.286       .  A
O617       Zr627   2.461       .  S
O617        C636   1.286       .  A
O618       Zr626   2.470       .  S
O618        C637   1.290       .  A
O619        C636   1.283       .  A
O620       Zr628   2.415       .  S
O620        C635   1.276       .  A
O621       Zr626   2.413       .  S
O621       Zr628   2.388       .  S
O622       Zr627   2.414       .  S
O622       Zr628   2.397       .  S
O622        H657   0.966       .  S
O623       Zr626   2.407       .  S
O623       Zr643   2.371       .  S
O623        H660   0.947       .  S
O624       Zr627   2.383       .  S
O624       Zr643   2.388       .  S
Zr625       O650   2.443       .  S
Zr625       O644   2.443       .  S
Zr625       O652   2.452       .  S
Zr625       O640   2.443       .  S
Zr625       O631   2.390       .  S
Zr625       O632   2.415       .  S
Zr625       O633   2.370       .  S
Zr625       O634   2.380       .  S
Zr626       O645   2.437       .  S
Zr626       O638   2.434       .  S
Zr626       O639   2.483       .  S
Zr626       O632   2.408       .  S
Zr626       O633   2.416       .  S
Zr627       O629   2.435       .  S
Zr627       O651   2.438       .  S
Zr627       O653   2.442       .  S
Zr627       O631   2.395       .  S
Zr627       O634   2.400       .  S
Zr628       O654   2.435       .  S
Zr628       O655   2.436       .  S
Zr628       O630   2.441       .  S
Zr628       O631   2.381       .  S
Zr628       O632   2.400       .  S
O629        H666   0.990       .  S
O630        H661   0.990       .  S
O630        H675   0.990       .  S
O632        H658   0.964       .  S
O633       Zr643   2.401       .  S
O634       Zr643   2.381       .  S
O634        H659   0.965       .  S
O638        H674   0.990       .  S
O639        C641   1.291       .  A
O640        C641   1.288       .  A
O642       Zr643   2.436       .  S
O642        H671   0.990       .  S
Zr643       O646   2.436       .  S
Zr643       O647   2.442       .  S
Zr643       O648   2.402       .  S
O644        C649   1.288       .  A
O645        H662   0.990       .  S
O645        H677   0.990       .  S
O646        H663   0.990       .  S
O647        H667   0.990       .  S
O647        H676   0.990       .  S
O648        C649   1.272       .  A
O650        H669   0.989       .  S
O650        H673   0.990       .  S
O651        H665   0.990       .  S
O651        H672   0.990       .  S
O652        C656   1.284       .  A
O653        C656   1.284       .  A
O654        H664   0.990       .  S
O655        H668   0.990       .  S
Zr679       O680   2.444       .  S
Zr679       O681   2.467       .  S
Zr679       O682   2.460       .  S
Zr679       O685   2.446       .  S
Zr679       O687   2.383       .  S
Zr679       O688   2.380       .  S
Zr679       O689   2.419       .  S
Zr679       O690   2.419       .  S
O680        H736   0.990       .  S
O680        H744   0.991       .  S
O681        C701   1.293       .  A
O682        C703   1.290       .  A
O683       Zr693   2.416       .  S
O683        C702   1.281       .  A
O684       Zr692   2.442       .  S
O684        C703   1.282       .  A
O685        C702   1.284       .  A
O686       Zr694   2.412       .  S
O686        C701   1.276       .  A
O687       Zr692   2.404       .  S
O687       Zr694   2.392       .  S
O688       Zr693   2.396       .  S
O688       Zr694   2.386       .  S
O688        H723   0.966       .  S
O689       Zr692   2.404       .  S
O689       Zr709   2.390       .  S
O689        H726   0.963       .  S
O690       Zr693   2.387       .  S
O690       Zr709   2.405       .  S
Zr691       O716   2.441       .  S
Zr691       O710   2.424       .  S
Zr691       O718   2.447       .  S
Zr691       O706   2.455       .  S
Zr691       O697   2.385       .  S
Zr691       O698   2.412       .  S
Zr691       O699   2.376       .  S
Zr691       O700   2.389       .  S
Zr692       O711   2.440       .  S
Zr692       O704   2.435       .  S
Zr692       O705   2.434       .  S
Zr692       O698   2.396       .  S
Zr692       O699   2.399       .  S
Zr693       O695   2.435       .  S
Zr693       O717   2.442       .  S
Zr693       O719   2.423       .  S
Zr693       O697   2.389       .  S
Zr693       O700   2.396       .  S
Zr694       O720   2.435       .  S
Zr694       O721   2.433       .  S
Zr694       O696   2.436       .  S
Zr694       O697   2.380       .  S
Zr694       O698   2.398       .  S
O695        H732   0.990       .  S
O696        H727   0.990       .  S
O696        H741   0.990       .  S
O698        H724   0.965       .  S
O699       Zr709   2.387       .  S
O700       Zr709   2.386       .  S
O700        H725   0.966       .  S
O704        H740   0.990       .  S
O705        C707   1.285       .  A
O706        C707   1.285       .  A
O708       Zr709   2.438       .  S
O708        H737   0.990       .  S
Zr709       O712   2.435       .  S
Zr709       O713   2.438       .  S
Zr709       O714   2.437       .  S
O710        C715   1.284       .  A
O711        H728   0.990       .  S
O711        H743   0.991       .  S
O712        H729   0.990       .  S
O713        H733   0.991       .  S
O713        H742   0.990       .  S
O714        C715   1.280       .  A
O716        H735   0.991       .  S
O716        H739   0.990       .  S
O717        H731   0.990       .  S
O717        H738   0.990       .  S
O718        C722   1.290       .  A
O719        C722   1.279       .  A
O720        H730   0.990       .  S
O721        H734   0.990       .  S
C745        C746   1.390       .  A
C745        C750   1.400       .  A
C745        H761   1.083       .  S
C746        C747   1.396       .  A
C746        H762   1.080       .  S
C747        C757   1.391       .  A
C747        C748   1.415       .  A
C748        C754   1.406       .  A
C748        C749   1.400       .  A
C749        C751   1.414       .  A
C749        C750   1.405       .  A
C750        C758   1.383       .  A
C751        C760   1.400       .  A
C751        C752   1.402       .  A
C752        C753   1.397       .  A
C752        H763   1.084       .  S
C753        C754   1.404       .  A
C753        H764   1.084       .  S
C754        C755   1.391       .  A
C755        C756   1.407       .  A
C755        H765   1.085       .  S
C756        C757   1.392       .  A
C757        H766   1.083       .  S
C758        C759   1.407       .  A
C758        H767   1.085       .  S
C759        C760   1.404       .  A
C760        H768   1.084       .  S
C769        C770   1.395       .  A
C769        C774   1.402       .  A
C769        H785   1.084       .  S
C770        C771   1.403       .  A
C770        H786   1.084       .  S
C771        C781   1.394       .  A
C771        C772   1.408       .  A
C772        C778   1.409       .  A
C772        C773   1.402       .  A
C773        C775   1.408       .  A
C773        C774   1.408       .  A
C774        C782   1.394       .  A
C775        C784   1.399       .  A
C775        C776   1.404       .  A
C776        C777   1.397       .  A
C776        H787   1.084       .  S
C777        C778   1.403       .  A
C777        H788   1.084       .  S
C778        C779   1.396       .  A
C779        C780   1.411       .  A
C779        H789   1.081       .  S
C780        C781   1.412       .  A
C781        H790   1.081       .  S
C782        C783   1.410       .  A
C782        H791   1.081       .  S
C783        C784   1.416       .  A
C784        H792   1.079       .  S
C793        C794   1.402       .  A
C793        C798   1.401       .  A
C793        H809   1.077       .  S
C794        C795   1.402       .  A
C794        H810   1.081       .  S
C795        C805   1.406       .  A
C795        C796   1.414       .  A
C796        C802   1.409       .  A
C796        C797   1.405       .  A
C797        C799   1.410       .  A
C797        C798   1.412       .  A
C798        C806   1.407       .  A
C799        C808   1.386       .  A
C799        C800   1.399       .  A
C800        C801   1.389       .  A
C800        H811   1.084       .  S
C801        C802   1.399       .  A
C801        H812   1.084       .  S
C802        C803   1.383       .  A
C803        C804   1.400       .  A
C803        H813   1.086       .  S
C804        C805   1.402       .  A
C805        H814   1.083       .  S
C806        C807   1.401       .  A
C806        H815   1.084       .  S
C807        C808   1.400       .  A
C808        H816   1.086       .  S
C817        C818   1.397       .  A
C817        C822   1.402       .  A
C817        H833   1.084       .  S
C818        C819   1.402       .  A
C818        H834   1.083       .  S
C819        C829   1.401       .  A
C819        C820   1.412       .  A
C820        C826   1.404       .  A
C820        C821   1.398       .  A
C821        C823   1.412       .  A
C821        C822   1.407       .  A
C822        C830   1.393       .  A
C823        C832   1.388       .  A
C823        C824   1.399       .  A
C824        C825   1.390       .  A
C824        H835   1.084       .  S
C825        C826   1.402       .  A
C825        H836   1.084       .  S
C826        C827   1.381       .  A
C827        C828   1.411       .  A
C827        H837   1.082       .  S
C828        C829   1.404       .  A
C829        H838   1.084       .  S
C830        C831   1.405       .  A
C830        H839   1.083       .  S
C831        C832   1.398       .  A
C832        H840   1.085       .  S
C841        C842   1.400       .  A
C841        C846   1.404       .  A
C841        H857   1.083       .  S
C842        C843   1.404       .  A
C842        H858   1.084       .  S
C843        C853   1.401       .  A
C843        C844   1.411       .  A
C844        C850   1.411       .  A
C844        C845   1.405       .  A
C845        C847   1.407       .  A
C845        C846   1.413       .  A
C846        C854   1.404       .  A
C847        C856   1.386       .  A
C847        C848   1.401       .  A
C848        C849   1.391       .  A
C848        H859   1.083       .  S
C849        C850   1.401       .  A
C849        H860   1.084       .  S
C850        C851   1.390       .  A
C851        C852   1.405       .  A
C851        H861   1.081       .  S
C852        C853   1.407       .  A
C853        H862   1.084       .  S
C854        C855   1.407       .  A
C854        H863   1.084       .  S
C855        C856   1.408       .  A
C856        H864   1.083       .  S
C865        C866   1.394       .  A
C865        C870   1.403       .  A
C865        H881   1.083       .  S
C866        C867   1.402       .  A
C866        H882   1.084       .  S
C867        C877   1.390       .  A
C867        C868   1.405       .  A
C868        C874   1.408       .  A
C868        C869   1.401       .  A
C869        C871   1.405       .  A
C869        C870   1.408       .  A
C870        C878   1.395       .  A
C871        C880   1.390       .  A
C871        C872   1.403       .  A
C872        C873   1.393       .  A
C872        H883   1.083       .  S
C873        C874   1.401       .  A
C873        H884   1.082       .  S
C874        C875   1.394       .  A
C875        C876   1.412       .  A
C875        H885   1.079       .  S
C876        C877   1.411       .  A
C877        H886   1.076       .  S
C878        C879   1.412       .  A
C878        H887   1.080       .  S
C879        C880   1.414       .  A
C880        H888   1.077       .  S
C889        C890   1.399   1_554  A
C889        C894   1.404       .  A
C889        H905   1.084       .  S
C890        C891   1.403       .  A
C890        H906   1.083       .  S
C891        C901   1.402       .  A
C891        C892   1.411       .  A
C892        C898   1.406       .  A
C892        C893   1.405   1_556  A
C893        C895   1.408       .  A
C893        C894   1.407       .  A
C894        C902   1.399       .  A
C895        C904   1.393       .  A
C895        C896   1.401   1_455  A
C896        C897   1.392   1_554  A
C896        H907   1.082       .  S
C897        C898   1.403   1_655  A
C897        H908   1.084       .  S
C898        C899   1.391       .  A
C899        C900   1.415       .  A
C899        H909   1.080   1_455  S
C900        C901   1.410       .  A
C901        H910   1.083       .  S
C902        C903   1.413       .  A
C902        H911   1.081       .  S
C903        C904   1.412       .  A
C904        H912   1.080   1_455  S
C913        C914   1.389       .  A
C913        C918   1.397   1_556  A
C913        H929   1.079   1_556  S
C914        C915   1.400       .  A
C914        H930   1.082   1_455  S
C915        C925   1.384       .  A
C915        C916   1.406       .  A
C916        C922   1.414       .  A
C916        C917   1.400   1_556  A
C917        C919   1.406       .  A
C917        C918   1.414       .  A
C918        C926   1.392       .  A
C919        C928   1.390       .  A
C919        C920   1.403       .  A
C920        C921   1.396       .  A
C920        H931   1.084       .  S
C921        C922   1.401   1_554  A
C921        H932   1.084   1_554  S
C922        C923   1.398       .  A
C923        C924   1.402       .  A
C923        H933   1.084       .  S
C924        C925   1.407       .  A
C925        H934   1.085       .  S
C926        C927   1.396       .  A
C926        H935   1.085       .  S
C927        C928   1.410       .  A
C928        H936   1.085       .  S
C937        C938   1.393       .  A
C937        C942   1.403       .  A
C937        H953   1.083       .  S
C938        C939   1.401       .  A
C938        H954   1.084       .  S
C939        C949   1.392   1_455  A
C939        C940   1.408       .  A
C940        C946   1.406       .  A
C940        C941   1.400       .  A
C941        C943   1.408       .  A
C941        C942   1.405       .  A
C942        C950   1.391       .  A
C943        C952   1.392       .  A
C943        C944   1.402   1_545  A
C944        C945   1.392       .  A
C944        H955   1.084       .  S
C945        C946   1.402   1_565  A
C945        H956   1.083       .  S
C946        C947   1.390   1_455  A
C947        C948   1.412       .  A
C947        H957   1.077   1_545  S
C948        C949   1.408       .  A
C949        H958   1.079       .  S
C950        C951   1.411       .  A
C950        H959   1.079       .  S
C951        C952   1.412       .  A
C952        H960   1.078   1_545  S
C961        C962   1.391       .  A
C961        C966   1.402   1_565  A
C961        H977   1.084       .  S
C962        C963   1.401   1_565  A
C962        H978   1.082       .  S
C963        C973   1.392       .  A
C963        C964   1.410       .  A
C964        C970   1.410       .  A
C964        C965   1.407       .  A
C965        C967   1.411       .  A
C965        C966   1.408       .  A
C966        C974   1.390       .  A
C967        C976   1.405       .  A
C967        C968   1.404       .  A
C968        C969   1.401       .  A
C968        H979   1.084       .  S
C969        C970   1.405       .  A
C969        H980   1.083       .  S
C970        C971   1.404       .  A
C971        C972   1.410       .  A
C971        H981   1.083       .  S
C972        C973   1.405       .  A
C973        H982   1.081   1_545  S
C974        C975   1.410   1_455  A
C974        H983   1.083   1_455  S
C975        C976   1.409   1_655  A
C976        H984   1.083   1_455  S
C985        C986   1.391       .  A
C985        C990   1.402       .  A
C985       H1001   1.084       .  S
C986        C987   1.400       .  A
C986       H1002   1.084       .  S
C987        C997   1.390       .  A
C987        C988   1.410   1_556  A
C988        C994   1.408       .  A
C988        C989   1.401       .  A
C989        C991   1.411       .  A
C989        C990   1.405   1_554  A
C990        C998   1.384       .  A
C991       C1000   1.401       .  A
C991        C992   1.400       .  A
C992        C993   1.398       .  A
C992       H1003   1.084   1_655  S
C993        C994   1.403       .  A
C993       H1004   1.083   1_655  S
C994        C995   1.396       .  A
C995        C996   1.408   1_544  A
C995       H1005   1.083   1_545  S
C996        C997   1.401   1_565  A
C997       H1006   1.085       .  S
C998        C999   1.410       .  A
C998       H1007   1.083       .  S
C999       C1000   1.403   1_556  A
C1000      H1008   1.084   1_655  S
C1009      C1010   1.396       .  A
C1009      C1014   1.396       .  A
C1009      H1025   1.071       .  S
C1010      C1011   1.398       .  A
C1010      H1026   1.082       .  S
C1011      C1021   1.398   1_545  A
C1011      C1012   1.414       .  A
C1012      C1018   1.409       .  A
C1012      C1013   1.402       .  A
C1013      C1015   1.409       .  A
C1013      C1014   1.412       .  A
C1014      C1022   1.400       .  A
C1015      C1024   1.385   1_554  A
C1015      C1016   1.400   1_554  A
C1016      C1017   1.391       .  A
C1016      H1027   1.084       .  S
C1017      C1018   1.400   1_556  A
C1017      H1028   1.084       .  S
C1018      C1019   1.385   1_544  A
C1019      C1020   1.401   1_556  A
C1019      H1029   1.086       .  S
C1020      C1021   1.395       .  A
C1021      H1030   1.081       .  S
C1022      C1023   1.394       .  A
C1022      H1031   1.084       .  S
C1023      C1024   1.403   1_554  A
C1024      H1032   1.086       .  S
