geometry optimzed in LAMMPS
_audit_creation_date              2020-11-30 
_audit_creation_method            'lammps2cif' 
_symmetry_space_group_name_H-M    'P1' 
_symmetry_Int_Tables_number       1 
_symmetry_cell_setting            triclinic 
loop_ 
_symmetry_equiv_pos_as_xyz 
  x,y,z 
_cell_length_a                    52.57673366 
_cell_length_b                    48.95170955967105 
_cell_length_c                    34.93147786149614 
_cell_angle_alpha                 93.34173761416427 
_cell_angle_beta                  89.62299409184659 
_cell_angle_gamma                 117.794565248345 
loop_ 
_atom_site_label 
_atom_site_type_symbol 
_atom_site_fract_x 
_atom_site_fract_y 
_atom_site_fract_z 
_atom_site_charge 
C1          C  0.44279222  0.39815352  0.37557969     0.03300
C2          C  0.46211325  0.39315602  0.35178601    -0.12900
C3          C  0.45214283  0.36717819  0.32584469     0.00800
C4          C  0.42244792  0.34803841  0.32170085    -0.11400
C5          C  0.40253975  0.35216465  0.34506531     0.03300
C6          C  0.41314129  0.37708720  0.37307760    -0.10800
H7          H  0.48495398  0.40880000  0.35467548     0.08900
H8          H  0.41470152  0.32877077  0.30041805     0.06400
H9          H  0.39873691  0.37977435  0.39342361     0.06200
C10         C  0.40546074  0.44363327  0.51323481     0.03300
C11         C  0.38988271  0.41341305  0.52577028    -0.12900
C12         C  0.36633368  0.40560220  0.04986493     0.00800
C13         C  0.35829163  0.42841708  0.06083949    -0.11400
C14         C  0.37148768  0.45760972  0.04559485     0.03300
C15         C  0.39543603  0.46546263  0.52204818    -0.10800
H16         H  0.39614663  0.39590995  0.51669946     0.08900
H17         H  0.34046826  0.42289804  0.08002431     0.06400
H18         H  0.40625714  0.48831853  0.51116196     0.06200
C19         C  0.09848005  0.04328884  0.35919241     0.03300
C20         C  0.11168484  0.02476274  0.34769941    -0.12900
C21         C  0.14005255  0.03850235  0.33329138     0.00800
C22         C  0.15451027  0.07102008  0.33220722    -0.11400
C23         C  0.13971419  0.08844917  0.33691859     0.03300
C24         C  0.11233137  0.07487975  0.35193745    -0.10800
H25         H  0.09931488  0.99993002  0.34840084     0.08900
H26         H  0.17655885  0.08260354  0.32302223     0.06400
H27         H  0.10141437  0.08885820  0.35646822     0.06200
N28         N  0.29234322  0.27638900  0.19179472    -0.36500
N29         N  0.25211208  0.24619755  0.12778019    -0.57000
N30         N  0.21176389  0.20587024  0.17965482    -0.36500
N31         N  0.25113180  0.23533769  0.24403991    -0.57000
C32         C  0.30322617  0.29802352  0.16541507     0.27100
C33         C  0.30457305  0.29040065  0.22626774     0.27100
C34         C  0.19512039  0.20126611  0.14815224     0.27100
C35         C  0.19424658  0.19707777  0.21003255     0.27100
C36         C  0.27572964  0.26461190  0.10871336     0.35700
C37         C  0.23363092  0.22475562  0.10177974     0.35700
C38         C  0.27505517  0.24709352  0.26671127     0.35700
C39         C  0.23169607  0.20916347  0.25946217     0.35700
C40         C  0.32251692  0.32611335  0.18343586    -0.21800
C41         C  0.32399149  0.32112753  0.22143472    -0.21800
C42         C  0.16667778  0.19010158  0.15863212    -0.21800
C43         C  0.16617909  0.18794094  0.19791057    -0.21800
C44         C  0.27238256  0.25479610  0.07016805    -0.22800
C45         C  0.24566040  0.22923477  0.06581421    -0.22800
C46         C  0.27069031  0.22857447  0.29713898    -0.22800
C47         C  0.24360046  0.20397558  0.29182449    -0.22800
C48         C  0.29806770  0.29246274  0.12512420    -0.18200
C49         C  0.29976165  0.27550409  0.26131074    -0.18200
C50         C  0.20267472  0.19203222  0.24630676    -0.18200
C51         C  0.20497338  0.20399539  0.11006404    -0.18200
H52         H  0.33505059  0.34785438  0.17046733     0.14700
H53         H  0.33801102  0.33845451  0.24272586     0.14700
H54         H  0.14816859  0.18334938  0.13980361     0.14700
H55         H  0.14714011  0.17864400  0.21516433     0.14700
H56         H  0.28720224  0.26560315  0.04748059     0.13000
H57         H  0.23569548  0.21642380  0.03908736     0.13000
H58         H  0.28536847  0.23229752  0.32076430     0.13000
H59         H  0.23360234  0.18509445  0.31051364     0.13000
H60         H  0.27974284  0.25269215  0.18609481     0.26300
H61         H  0.23301361  0.20976343  0.17939262     0.26300
C62         C  0.06120688  0.08278469  0.49366717     0.03300
C63         C  0.04280820  0.09075815  0.01538591    -0.12900
C64         C  0.05404373  0.11747629  0.04009372     0.00800
C65         C  0.08395424  0.13532846  0.04395943    -0.11400
C66         C  0.10277304  0.12663459  0.02482285     0.03300
C67         C  0.09129247  0.10043974  0.99878259    -0.10800
H68         H  0.01974499  0.07648851  0.51222474     0.08900
H69         H  0.09281684  0.15608654  0.06301615     0.06400
H70         H  0.10554019  0.09427456  0.48216935     0.06200
C71         C  0.06006281  0.44221532  0.49471231     0.03300
C72         C  0.04812590  0.41060963  0.00238159    -0.12900
C73         C  0.06219098  0.40026480  0.02719576     0.00800
C74         C  0.08935121  0.42143688  0.04207397    -0.11400
C75         C  0.10326368  0.45196698  0.03118301     0.03300
C76         C  0.08834903  0.46276399  0.00815764    -0.10800
H77         H  0.02722038  0.39416468  0.49043425     0.08900
H78         H  0.10026118  0.41390695  0.06191394     0.06400
H79         H  0.09844797  0.48682942  0.50140009     0.06200
C80         C  0.44232404  0.04052027  0.37748534     0.03300
C81         C  0.41301777  0.02086575  0.36838520    -0.12900
C82         C  0.39745488  0.03089361  0.34534036     0.00800
C83         C  0.41174664  0.06087845  0.33186566    -0.11400
C84         C  0.44009570  0.08169438  0.34320391     0.03300
C85         C  0.45497585  0.07146970  0.36685130    -0.10800
H86         H  0.40260288  0.99787916  0.37883421     0.08900
H87         H  0.40056318  0.06822655  0.31225716     0.06400
H88         H  0.47695849  0.08738478  0.37553769     0.06200
N89         N  0.01233454  0.28595976  0.18167326    -0.36500
N90         N  0.49502250  0.24412682  0.24308155    -0.57000
N91         N  0.99447861  0.19750780  0.18792726    -0.36500
N92         N  0.01201526  0.23933587  0.12675576    -0.57000
C93         C  0.51548723  0.30563613  0.21232261     0.27100
C94         C  0.02506336  0.30354299  0.15182405     0.27100
C95         C  0.48057125  0.17975290  0.21711815     0.27100
C96         C  0.99099588  0.17795911  0.15703688     0.27100
C97         C  0.49392784  0.26812190  0.26277945     0.35700
C98         C  0.48720283  0.22110486  0.26722115     0.35700
C99         C  0.01964311  0.26214860  0.10242355     0.35700
C100        C  0.01366233  0.21558771  0.10733306     0.35700
C101        C  0.53071521  0.33591978  0.20205188    -0.21800
C102        C  0.03686116  0.33463255  0.16398148    -0.21800
C103        C  0.46762033  0.14874731  0.20419897    -0.21800
C104        C  0.97441382  0.14764730  0.16638735    -0.21800
C105        C  0.48526968  0.26026456  0.29986864    -0.22800
C106        C  0.48232595  0.23105282  0.30317518    -0.22800
C107        C  0.02507654  0.25236289  0.06670787    -0.22800
C108        C  0.02265573  0.22345829  0.07035614    -0.22800
C109        C  0.50175402  0.29723863  0.24783982    -0.18200
C110        C  0.02482253  0.29263751  0.11321497    -0.18200
C111        C  0.00534716  0.18639320  0.12206947    -0.18200
C112        C  0.48106995  0.19030319  0.25591130    -0.18200
H113        H  0.53607342  0.35676783  0.21996180     0.14700
H114        H  0.04818455  0.35442224  0.14694573     0.14700
H115        H  0.45518826  0.12884863  0.22062098     0.14700
H116        H  0.96848998  0.12689236  0.14802890     0.14700
H117        H  0.48185119  0.27412178  0.32252497     0.13000
H118        H  0.47564807  0.21804833  0.32858924     0.13000
H119        H  0.03165117  0.26525179  0.04119451     0.13000
H120        H  0.02638575  0.20970620  0.04787233     0.13000
H121        H  0.99854469  0.26231326  0.17982618     0.26300
H122        H  0.00915766  0.22092074  0.19041291     0.26300
N123        N  0.20639332  0.47396239  0.19054365    -0.36500
N124        N  0.24145754  0.96773292  0.25044937    -0.57000
N125        N  0.28467916  0.48008998  0.19176166    -0.36500
N126        N  0.24827272  0.48434925  0.13302100    -0.57000
C127        C  0.18830732  0.96390947  0.22013683     0.27100
C128        C  0.19028948  0.46928047  0.15835457     0.27100
C129        C  0.29573056  0.47148301  0.22090875     0.27100
C130        C  0.29744464  0.47699588  0.15905354     0.27100
C131        C  0.22292471  0.97322728  0.27269632     0.35700
C132        C  0.26429201  0.97361613  0.27335981     0.35700
C133        C  0.23080898  0.49253981  0.11412504     0.35700
C134        C  0.27336241  0.49559440  0.11441534     0.35700
C135        C  0.16023093  0.45213929  0.20674928    -0.21800
C136        C  0.16138210  0.45475340  0.16756619    -0.21800
C137        C  0.31587954  0.46305373  0.20643741    -0.21800
C138        C  0.31604646  0.46524244  0.16747683    -0.21800
C139        C  0.23328297  0.98109543  0.31015300    -0.22800
C140        C  0.25906491  0.98038019  0.31085945    -0.22800
C141        C  0.24500023  0.50945844  0.08324703    -0.22800
C142        C  0.27207564  0.51140438  0.08344249    -0.22800
C143        C  0.19713358  0.97191114  0.25909031    -0.18200
C144        C  0.20139396  0.48174814  0.12250563    -0.18200
C145        C  0.29567525  0.48834149  0.12304308    -0.18200
C146        C  0.29044152  0.97478764  0.26042376    -0.18200
H147        H  0.14108746  0.94396238  0.22376721     0.14700
H148        H  0.14309028  0.44859280  0.14856851     0.14700
H149        H  0.32982677  0.45669394  0.22179820     0.14700
H150        H  0.32969144  0.46034095  0.14800308     0.14700
H151        H  0.22345056  0.98694856  0.33438803     0.13000
H152        H  0.27296767  0.98575527  0.33589188     0.13000
H153        H  0.23641593  0.51851546  0.06217307     0.13000
H154        H  0.28852239  0.52221406  0.06253328     0.13000
H155        H  0.22841652  0.48827348  0.19367303     0.26300
H156        H  0.27260274  0.49184945  0.19515313     0.26300
O157        O  0.48684703  0.04796112  0.40326348    -0.80800
O158        O  0.05110422  0.48117172  0.46755206    -0.65400
O159        O  0.00589726  0.00314850  0.40243044    -1.12000
C160        C  0.43243228  0.45182320  0.49212297     1.06100
O161        O  0.01534774  0.43375850  0.46837476    -0.78700
O162        O  0.46369192  0.41529754  0.43655338    -0.66200
Ni163      Ni  0.02013851  0.04419668  0.38671482     1.34900
C164        C  0.45464021  0.42223857  0.40707534     0.84900
O165        O  0.06234134  0.00982383  0.40092502    -0.79200
O166        O  0.05468061  0.04413173  0.36904830    -0.89500
C167        C  0.04146088  0.45319143  0.47588151     0.84400
O168        O  0.03887307  0.06597206  0.43341416    -0.67700
O169        O  0.44670384  0.43760904  0.49996214    -0.87000
C170        C  0.04841742  0.05882550  0.46226947     0.85300
C171        C  0.06980949  0.03091216  0.37695110     1.06800
H172        H  0.50083193  0.49184169  0.48932547     0.38600
O173        O  0.49641797  0.47828932  0.46631819    -1.09600
O174        O  0.45639717  0.44880023  0.40313104    -0.66300
Ni175      Ni  0.47266670  0.48773792  0.43401154     1.26300
O176        O  0.04637083  0.03216443  0.46570711    -0.66500
O177        O  0.44026469  0.47231048  0.46744753    -0.78800
C178        C  0.46084375  0.02882583  0.39497514     0.84700
O179        O  0.45137896  0.00040369  0.40109594    -0.66000
Ni180      Ni  0.48168079  0.43749184  0.48331789     1.27400
Ni181      Ni  0.02973874  0.49361719  0.43449824     1.26100
H182        H  0.00156857  0.48992258  0.37924998     0.39200
C183        C  0.32655602  0.01569827  0.30608022    -0.01700
C184        C  0.31518079  0.98557654  0.28843129     0.08000
C185        C  0.32811656  0.96696781  0.29735871    -0.01800
C186        C  0.35558206  0.98091503  0.31577751    -0.01800
C187        C  0.36651456  0.01116313  0.33352703     0.08100
C188        C  0.34872982  0.02548271  0.33342838    -0.02000
Br189      Br  0.35275801  0.05629044  0.37286328    -0.00600
Br190      Br  0.31459058  0.04533835  0.29075850    -0.00600
Br191      Br  0.37825712  0.95937806  0.31268853    -0.00600
Br192      Br  0.30829606  0.42287682  0.28528227    -0.00600
C193        C  0.48026984  0.12418690  0.30789319    -0.01700
C194        C  0.45407900  0.11323686  0.32772603     0.08000
C195        C  0.43937698  0.13120503  0.32862027    -0.01800
C196        C  0.44697703  0.15528377  0.30389457    -0.01800
C197        C  0.47338706  0.16668981  0.28512066     0.08100
C198        C  0.49098487  0.15234830  0.28985168    -0.02000
Br199      Br  0.02923818  0.17051324  0.26968093    -0.00600
Br200      Br  0.00021328  0.09970016  0.30084728    -0.00600
Br201      Br  0.41942074  0.16960044  0.29264296    -0.00600
Br202      Br  0.41077718  0.12539487  0.36609827    -0.00600
C203        C  0.16470142  0.49789992  0.10061160    -0.01700
C204        C  0.18107992  0.48209730  0.09264147     0.08000
C205        C  0.17576944  0.46403900  0.05763376    -0.01800
C206        C  0.15336281  0.46040441  0.03271458    -0.01800
C207        C  0.13358437  0.47081168  0.04476827     0.08100
C208        C  0.14018245  0.49108654  0.07769852    -0.02000
Br209      Br  0.11409421  0.50690203  0.09333366    -0.00600
Br210      Br  0.17460938  0.52724358  0.14426538    -0.00600
Br211      Br  0.14772769  0.43858421  0.98314170    -0.00600
Br212      Br  0.19581932  0.44028181  0.04567322    -0.00600
C213        C  0.02162328  0.35497981  0.05767435    -0.01700
C214        C  0.04876046  0.36803270  0.04007326     0.08000
C215        C  0.06543224  0.35222722  0.04073834    -0.01800
C216        C  0.05834539  0.32810806  0.06523394    -0.01800
C217        C  0.03159251  0.31545981  0.08330509     0.08100
C218        C  0.01237188  0.32748645  0.07677300    -0.02000
Br219      Br  0.47392875  0.30724865  0.09634773    -0.00600
Br220      Br  0.49817064  0.37584670  0.06032556    -0.00600
Br221      Br  0.08689214  0.31533503  0.07717258    -0.00600
Br222      Br  0.09790327  0.36318978  0.00788604    -0.00600
C223        C  0.04255129  0.13695485  0.10175587    -0.01700
C224        C  0.03558828  0.12785724  0.06255387     0.08000
C225        C  0.01439100  0.13338958  0.04475233    -0.01800
C226        C  0.00217864  0.14979731  0.06556354    -0.01800
C227        C  0.01369615  0.16407771  0.10203050     0.08100
C228        C  0.03358954  0.15699783  0.12033347    -0.02000
Br229      Br  0.05079917  0.17655896  0.16970063    -0.00600
Br230      Br  0.06460754  0.12206486  0.13022815    -0.00600
Br231      Br  0.46984616  0.15281444  0.04428376    -0.00600
Br232      Br  0.00332210  0.12114697  0.49142768    -0.00600
C233        C  0.17409225  0.15239930  0.07609901    -0.01700
C234        C  0.18404308  0.18464342  0.07872290     0.08000
C235        C  0.17137072  0.19745487  0.05496439    -0.01800
C236        C  0.14710488  0.17783763  0.03179813    -0.01800
C237        C  0.13403380  0.14540165  0.03455275     0.08100
C238        C  0.14848338  0.13268363  0.05539187    -0.02000
Br239      Br  0.13170670  0.08862310  0.05984024    -0.00600
Br240      Br  0.19532557  0.13546213  0.10203893    -0.00600
Br241      Br  0.13029735  0.19535901  0.99826236    -0.00600
Br242      Br  0.18551922  0.24162407  0.05669234    -0.00600
C243        C  0.14577843  0.11292543  0.27545760    -0.01700
C244        C  0.14948972  0.11673345  0.31546975     0.08000
C245        C  0.16468958  0.14676195  0.33282524    -0.01800
C246        C  0.17816700  0.17214463  0.30948492    -0.01800
C247        C  0.18116906  0.16680646  0.26965363     0.08100
C248        C  0.16440876  0.13645537  0.25279061    -0.02000
Br249      Br  0.16922436  0.12443324  0.20074161    -0.00600
Br250      Br  0.11417621  0.07600976  0.25207898    -0.00600
Br251      Br  0.19197626  0.21367887  0.33198450    -0.00600
Br252      Br  0.16705751  0.15286530  0.38786812    -0.00600
C253        C  0.18862008  0.01733227  0.26960229    -0.01700
C254        C  0.18375250  0.98858117  0.28176640     0.08000
C255        C  0.16570700  0.97639967  0.31312788    -0.01800
C256        C  0.15261226  0.99315035  0.33173285    -0.01800
C257        C  0.15425851  0.02005742  0.31564274     0.08100
C258        C  0.17138585  0.03050032  0.28254480    -0.02000
Br259      Br  0.16931647  0.05931818  0.24916082    -0.00600
Br260      Br  0.22031954  0.04000967  0.23633860    -0.00600
Br261      Br  0.13451767  0.97973300  0.38016089    -0.00600
Br262      Br  0.15976043  0.93741694  0.33105396    -0.00600
C263        C  0.34725844  0.50800202  0.10300402    -0.01700
C264        C  0.31752225  0.49090471  0.09346041     0.08000
C265        C  0.30914362  0.47168709  0.05913513    -0.01800
C266        C  0.32990065  0.46745584  0.03763492    -0.01800
C267        C  0.35765718  0.47774340  0.05334097     0.08100
C268        C  0.36694580  0.49973288  0.08474397    -0.02000
Br269      Br  0.40535668  0.51535888  0.10554935    -0.00600
Br270      Br  0.36026482  0.03970924  0.14435692    -0.00600
Br271      Br  0.32012465  0.44511489  0.98814894    -0.00600
Br272      Br  0.26925342  0.44689967  0.04411381    -0.00400
C273        C  0.30213027  0.33242615  0.07977539    -0.01700
C274        C  0.31542712  0.31806254  0.09972763     0.08000
C275        C  0.34559347  0.33016313  0.09853579    -0.01800
C276        C  0.36258319  0.35882120  0.08259610    -0.01800
C277        C  0.34927445  0.37367297  0.06335422     0.08100
C278        C  0.31889145  0.35876382  0.05960753    -0.02000
Br279      Br  0.29965179  0.37342389  0.02586853    -0.00600
Br280      Br  0.26110360  0.31795935  0.08232442    -0.00600
Br281      Br  0.40374525  0.37851127  0.09098178    -0.00600
Br282      Br  0.36361194  0.30780761  0.12000709    -0.00600
C283        C  0.36371212  0.29807172  0.32910847    -0.01700
C284        C  0.37125463  0.32955928  0.33828523     0.08000
C285        C  0.35029964  0.33938391  0.33155842    -0.01800
C286        C  0.32433115  0.31903183  0.31182461    -0.01800
C287        C  0.32125194  0.29113423  0.29355551     0.08100
C288        C  0.34072583  0.28022114  0.30329997    -0.02000
Br289      Br  0.33850408  0.24302141  0.27800518    -0.00600
Br290      Br  0.38592592  0.27995132  0.35009534    -0.00600
Br291      Br  0.29417010  0.33059530  0.30591863    -0.00600
Br292      Br  0.35750342  0.38116974  0.34458029    -0.00600
C293        C  0.47281761  0.32588144  0.24844676    -0.01700
C294        C  0.49275105  0.31927332  0.26751938     0.08000
C295        C  0.50427871  0.33454599  0.30361692    -0.01800
C296        C  0.49218169  0.35169801  0.32316324    -0.01800
C297        C  0.47151924  0.35746349  0.30416882     0.08100
C298        C  0.46473048  0.34728724  0.26519893    -0.02000
Br299      Br  0.44376686  0.36226247  0.23475824    -0.00600
Br300      Br  0.45418266  0.30366536  0.20074930    -0.00600
Br301      Br  0.50251980  0.36450539  0.37655972    -0.00600
Br302      Br  0.53655443  0.33213159  0.32608945    -0.00600
C303        C  0.44279171  0.39815393  0.87558125     0.03300
C304        C  0.46211282  0.39315569  0.85178865    -0.12900
C305        C  0.45214245  0.36717770  0.82584765     0.00800
C306        C  0.42244748  0.34803841  0.82170297    -0.11400
C307        C  0.40253914  0.35216546  0.84506622     0.03300
C308        C  0.41314064  0.37708822  0.87307828    -0.10800
H309        H  0.48495358  0.40879934  0.85467867     0.08900
H310        H  0.41470118  0.32877065  0.80042036     0.06400
H311        H  0.39873613  0.37977593  0.89342354     0.06200
C312        C  0.40546133  0.44363481  0.01323717     0.03300
C313        C  0.38988262  0.41341449  0.02577185    -0.12900
C314        C  0.36633336  0.40560039  0.54986272     0.00800
C315        C  0.35829042  0.42841472  0.56083628    -0.11400
C316        C  0.37148582  0.45760708  0.54559092     0.03300
C317        C  0.39543762  0.46546481  0.02205177    -0.10800
H318        H  0.39614577  0.39591103  0.01669995     0.08900
H319        H  0.34046686  0.42289540  0.58002092     0.06400
H320        H  0.40625921  0.48832082  0.01116604     0.06200
C321        C  0.09848004  0.04328940  0.85919337     0.03300
C322        C  0.11168457  0.02476324  0.84769918    -0.12900
C323        C  0.14005191  0.03850280  0.83328988     0.00800
C324        C  0.15450960  0.07102046  0.83220529    -0.11400
C325        C  0.13971394  0.08844983  0.83691910     0.03300
C326        C  0.11233153  0.07488050  0.85193930    -0.10800
H327        H  0.09931475  0.99993051  0.84840079     0.08900
H328        H  0.17655773  0.08260367  0.82301843     0.06400
H329        H  0.10141482  0.08885914  0.85647148     0.06200
N330        N  0.29234212  0.27638973  0.69179540    -0.36500
N331        N  0.25211166  0.24619735  0.62778077    -0.57000
N332        N  0.21176299  0.20587080  0.67965582    -0.36500
N333        N  0.25113038  0.23533912  0.74404096    -0.57000
C334        C  0.30322507  0.29802389  0.66541533     0.27100
C335        C  0.30457146  0.29040202  0.72626838     0.27100
C336        C  0.19511970  0.20126661  0.64815299     0.27100
C337        C  0.19424553  0.19707878  0.71003347     0.27100
C338        C  0.27572935  0.26461132  0.60871388     0.35700
C339        C  0.23363051  0.22475519  0.60178057     0.35700
C340        C  0.27505380  0.24709518  0.76671229     0.35700
C341        C  0.23169486  0.20916479  0.75946320     0.35700
C342        C  0.32251515  0.32611415  0.68343583    -0.21800
C343        C  0.32398950  0.32112898  0.72143498    -0.21800
C344        C  0.16667710  0.19010258  0.65863265    -0.21800
C345        C  0.16617819  0.18794228  0.69791119    -0.21800
C346        C  0.27238241  0.25479499  0.57016874    -0.22800
C347        C  0.24566013  0.22923379  0.56581513    -0.22800
C348        C  0.27068916  0.22857621  0.79713999    -0.22800
C349        C  0.24359950  0.20397706  0.79182536    -0.22800
C350        C  0.29806730  0.29246239  0.62512441    -0.18200
C351        C  0.29976014  0.27550582  0.76131158    -0.18200
C352        C  0.20267348  0.19203338  0.74630791    -0.18200
C353        C  0.20497284  0.20399536  0.61006486    -0.18200
H354        H  0.33504862  0.34785503  0.67046690     0.14700
H355        H  0.33800868  0.33845643  0.74272598     0.14700
H356        H  0.14816803  0.18335051  0.63980394     0.14700
H357        H  0.14713913  0.17864573  0.71516481     0.14700
H358        H  0.28720215  0.26560166  0.54748119     0.13000
H359        H  0.23569517  0.21642256  0.53908845     0.13000
H360        H  0.28536734  0.23229942  0.82076534     0.13000
H361        H  0.23360165  0.18509586  0.81051440     0.13000
H362        H  0.27974224  0.25269277  0.68609593     0.26300
H363        H  0.23301261  0.20976372  0.67939392     0.26300
C364        C  0.06120708  0.08278420  0.99366841     0.03300
C365        C  0.04280791  0.09075944  0.51538338    -0.12900
C366        C  0.05404348  0.11747731  0.54009177     0.00800
C367        C  0.08395395  0.13532898  0.54395838    -0.11400
C368        C  0.10277276  0.12663472  0.52482261     0.03300
C369        C  0.09129226  0.10043972  0.49878252    -0.10800
H370        H  0.01974531  0.07648652  0.01222836     0.08900
H371        H  0.09281649  0.15608688  0.56301543     0.06400
H372        H  0.10554030  0.09427502  0.98216846     0.06200
C373        C  0.06006329  0.44221525  0.99471159     0.03300
C374        C  0.04812542  0.41060994  0.50238375    -0.12900
C375        C  0.06219086  0.40026578  0.52719840     0.00800
C376        C  0.08935102  0.42143841  0.54207622    -0.11400
C377        C  0.10326322  0.45196811  0.53118397     0.03300
C378        C  0.08834852  0.46276437  0.50815776    -0.10800
H379        H  0.02722088  0.39416464  0.99043174     0.08900
H380        H  0.10026127  0.41390913  0.56191661     0.06400
H381        H  0.09844847  0.48682930  0.00140112     0.06200
C382        C  0.44232350  0.04052080  0.87748720     0.03300
C383        C  0.41301717  0.02086656  0.86838677    -0.12900
C384        C  0.39745461  0.03089457  0.84534130     0.00800
C385        C  0.41174682  0.06087947  0.83186692    -0.11400
C386        C  0.44009578  0.08169514  0.84320576     0.03300
C387        C  0.45497553  0.07147025  0.86685340    -0.10800
H388        H  0.40260209  0.99788006  0.87883588     0.08900
H389        H  0.40056385  0.06822784  0.81225801     0.06400
H390        H  0.47695810  0.08738520  0.87554010     0.06200
N391        N  0.01233734  0.28596123  0.68167709    -0.36500
N392        N  0.49502328  0.24412743  0.74308408    -0.57000
N393        N  0.99447931  0.19750833  0.68792910    -0.36500
N394        N  0.01201806  0.23933734  0.62675889    -0.57000
C395        C  0.51548918  0.30563735  0.71232643     0.27100
C396        C  0.02506624  0.30354465  0.65182810     0.27100
C397        C  0.48057114  0.17975336  0.71711954     0.27100
C398        C  0.99099649  0.17795980  0.65703848     0.27100
C399        C  0.49392902  0.26812255  0.76278251     0.35700
C400        C  0.48720321  0.22110516  0.76722324     0.35700
C401        C  0.01964692  0.26215064  0.60242729     0.35700
C402        C  0.01366480  0.21558909  0.60733585     0.35700
C403        C  0.53071687  0.33592110  0.70205595    -0.21800
C404        C  0.03686331  0.33463414  0.66398569    -0.21800
C405        C  0.46761976  0.14874786  0.70419995    -0.21800
C406        C  0.97441358  0.14764800  0.66638846    -0.21800
C407        C  0.48527064  0.26026488  0.79987157    -0.22800
C408        C  0.48232648  0.23105291  0.80317753    -0.22800
C409        C  0.02508093  0.25236532  0.56671173    -0.22800
C410        C  0.02265928  0.22346030  0.57035946    -0.22800
C411        C  0.50175563  0.29723953  0.74784343    -0.18200
C412        C  0.02482595  0.29263942  0.61321898    -0.18200
C413        C  0.00534820  0.18639393  0.62207130    -0.18200
C414        C  0.48106980  0.19030343  0.75591281    -0.18200
H415        H  0.53607452  0.35676901  0.71996588     0.14700
H416        H  0.04818650  0.35442397  0.64695010     0.14700
H417        H  0.45518712  0.12884913  0.72062159     0.14700
H418        H  0.96848949  0.12689313  0.64802979     0.14700
H419        H  0.48185225  0.27412200  0.82252817     0.13000
H420        H  0.47564837  0.21804813  0.82859139     0.13000
H421        H  0.03165623  0.26525455  0.54119870     0.13000
H422        H  0.02638935  0.20970836  0.54787554     0.13000
H423        H  0.99854783  0.26231461  0.67982965     0.26300
H424        H  0.00915885  0.22092109  0.69041534     0.26300
N425        N  0.20639310  0.47396275  0.69054263    -0.36500
N426        N  0.24145738  0.96773290  0.75044810    -0.57000
N427        N  0.28467796  0.48008775  0.69175947    -0.36500
N428        N  0.24827150  0.48434770  0.63301927    -0.57000
C429        C  0.18830738  0.96390991  0.72013599     0.27100
C430        C  0.19028901  0.46928050  0.65835371     0.27100
C431        C  0.29572973  0.47148127  0.72090666     0.27100
C432        C  0.29744311  0.47699319  0.65905122     0.27100
C433        C  0.22292513  0.97322834  0.77269507     0.35700
C434        C  0.26429204  0.97361596  0.77335816     0.35700
C435        C  0.23080819  0.49253912  0.61412374     0.35700
C436        C  0.27336088  0.49559180  0.61441297     0.35700
C437        C  0.16023084  0.45213952  0.70674880    -0.21800
C438        C  0.16138168  0.45475326  0.66756561    -0.21800
C439        C  0.31587860  0.46305191  0.70643524    -0.21800
C440        C  0.31604512  0.46524003  0.66747458    -0.21800
C441        C  0.23328395  0.98109710  0.81015146    -0.22800
C442        C  0.25906561  0.98038113  0.81085771    -0.22800
C443        C  0.24499944  0.50945731  0.58324542    -0.22800
C444        C  0.27207431  0.51140184  0.58344005    -0.22800
C445        C  0.19713397  0.97191236  0.75908927    -0.18200
C446        C  0.20139333  0.48174823  0.62250478    -0.18200
C447        C  0.29567336  0.48833830  0.62304054    -0.18200
C448        C  0.29044126  0.97478664  0.76042174    -0.18200
H449        H  0.14108756  0.94396267  0.72376693     0.14700
H450        H  0.14308972  0.44859237  0.64856805     0.14700
H451        H  0.32982614  0.45669259  0.72179608     0.14700
H452        H  0.32969006  0.46033848  0.64800081     0.14700
H453        H  0.22345209  0.98695111  0.83438642     0.13000
H454        H  0.27296868  0.98575651  0.83588988     0.13000
H455        H  0.23641540  0.51851477  0.56217165     0.13000
H456        H  0.28852089  0.52221083  0.56253042     0.13000
H457        H  0.22841623  0.48827407  0.69367172     0.26300
H458        H  0.27260164  0.49184729  0.69515084     0.26300
O459        O  0.48684667  0.04796145  0.90326471    -0.80800
O460        O  0.05110423  0.48117180  0.96755243    -0.65400
O461        O  0.00589692  0.00314876  0.90243144    -1.12000
C462        C  0.43243255  0.45182422  0.99212485     1.06100
O463        O  0.01534762  0.43375872  0.96837636    -0.78700
O464        O  0.46369181  0.41529811  0.93655467    -0.66200
Ni465      Ni  0.02013831  0.04419708  0.88671617     1.34900
C466        C  0.45463974  0.42223903  0.90707688     0.84900
O467        O  0.06234097  0.00982369  0.90092526    -0.79200
O468        O  0.05468064  0.04413241  0.86904984    -0.89500
C469        C  0.04146100  0.45319158  0.97588201     0.84400
O470        O  0.03887264  0.06597207  0.93341578    -0.67700
O471        O  0.44670383  0.43760965  0.99996353    -0.87000
C472        C  0.04841737  0.05882536  0.96227058     0.85300
C473        C  0.06980940  0.03091255  0.87695205     1.06800
H474        H  0.50083220  0.49184210  0.98932660     0.38600
O475        O  0.49641800  0.47828972  0.96631934    -1.09600
O476        O  0.45639653  0.44880064  0.90313273    -0.66300
Ni477      Ni  0.47266658  0.48773846  0.93401303     1.26300
O478        O  0.04637101  0.03216438  0.96570766    -0.66500
O479        O  0.44026499  0.47231155  0.96744955    -0.78800
C480        C  0.46084329  0.02882620  0.89497673     0.84700
O481        O  0.45137854  0.00040410  0.90109763    -0.66000
Ni482      Ni  0.48168074  0.43749230  0.98331921     1.27400
Ni483      Ni  0.02973847  0.49361721  0.93449895     1.26100
H484        H  0.00156787  0.48992280  0.87925107     0.39200
C485        C  0.32655648  0.01569864  0.80607589    -0.01700
C486        C  0.31518114  0.98557640  0.78842862     0.08000
C487        C  0.32811715  0.96696811  0.79735736    -0.01800
C488        C  0.35558228  0.98091572  0.81577746    -0.01800
C489        C  0.36651448  0.01116409  0.83352617     0.08100
C490        C  0.34872987  0.02548381  0.83342484    -0.02000
Br491      Br  0.35275703  0.05629255  0.87285768    -0.00600
Br492      Br  0.31459105  0.04533810  0.79075148    -0.00600
Br493      Br  0.37825725  0.95937858  0.81269196    -0.00600
Br494      Br  0.30829739  0.42287707  0.78528130    -0.00600
C495        C  0.48027005  0.12418750  0.80789507    -0.01700
C496        C  0.45407937  0.11323766  0.82772820     0.08000
C497        C  0.43937750  0.13120593  0.82862277    -0.01800
C498        C  0.44697716  0.15528427  0.80389656    -0.01800
C499        C  0.47338689  0.16668995  0.78512195     0.08100
C500        C  0.49098483  0.15234861  0.78985299    -0.02000
Br501      Br  0.02923806  0.17051358  0.76968196    -0.00600
Br502      Br  0.00021383  0.09970106  0.80085021    -0.00600
Br503      Br  0.41942091  0.16960111  0.79264568    -0.00600
Br504      Br  0.41077868  0.12539638  0.86610211    -0.00600
C505        C  0.16470049  0.49790018  0.60061236    -0.01700
C506        C  0.18107930  0.48209801  0.59264109     0.08000
C507        C  0.17576912  0.46404072  0.55763254    -0.01800
C508        C  0.15336249  0.46040660  0.53271369    -0.01800
C509        C  0.13358389  0.47081327  0.54476841     0.08100
C510        C  0.14018169  0.49108731  0.57769932    -0.02000
Br511      Br  0.11409299  0.50690199  0.59333548    -0.00600
Br512      Br  0.17460743  0.52724222  0.64426770    -0.00600
Br513      Br  0.14772719  0.43858726  0.48314015    -0.00600
Br514      Br  0.19581887  0.44028361  0.54567047    -0.00600
C515        C  0.02162418  0.35498012  0.55767753    -0.01700
C516        C  0.04876127  0.36803379  0.54007631     0.08000
C517        C  0.06543403  0.35222941  0.54074186    -0.01800
C518        C  0.05834810  0.32811065  0.56523785    -0.01800
C519        C  0.03159529  0.31546164  0.58330912     0.08100
C520        C  0.01237383  0.32748717  0.57677679    -0.02000
Br521      Br  0.47393070  0.30724806  0.59635155    -0.00600
Br522      Br  0.49817010  0.37584531  0.56032772    -0.00600
Br523      Br  0.08689592  0.31533922  0.57717675    -0.00600
Br524      Br  0.09790537  0.36319306  0.50788985    -0.00600
C525        C  0.04255025  0.13695368  0.60175498    -0.01700
C526        C  0.03558814  0.12785815  0.56255238     0.08000
C527        C  0.01439196  0.13339232  0.54475110    -0.01800
C528        C  0.00217939  0.14979934  0.56556347    -0.01800
C529        C  0.01369614  0.16407781  0.60203147     0.08100
C530        C  0.03358854  0.15699622  0.62033399    -0.02000
Br531      Br  0.05079742  0.17655498  0.66970227    -0.00600
Br532      Br  0.06460559  0.12206186  0.63022599    -0.00600
Br533      Br  0.46984790  0.15281829  0.54428384    -0.00600
Br534      Br  0.00331879  0.12114035  0.99143010    -0.00600
C535        C  0.17409148  0.15239916  0.57610029    -0.01700
C536        C  0.18404256  0.18464330  0.57872374     0.08000
C537        C  0.17137052  0.19745475  0.55496469    -0.01800
C538        C  0.14710485  0.17783753  0.53179811    -0.01800
C539        C  0.13403344  0.14540158  0.53455319     0.08100
C540        C  0.14848255  0.13268351  0.55539325    -0.02000
Br541      Br  0.13170494  0.08862312  0.55984347    -0.00600
Br542      Br  0.19532468  0.13546202  0.60204053    -0.00600
Br543      Br  0.13029806  0.19535900  0.49826121    -0.00600
Br544      Br  0.18551930  0.24162396  0.55669218    -0.00600
C545        C  0.14577664  0.11292677  0.77545908    -0.01700
C546        C  0.14948902  0.11673440  0.81547105     0.08000
C547        C  0.16468980  0.14676271  0.83282677    -0.01800
C548        C  0.17816658  0.17214556  0.80948658    -0.01800
C549        C  0.18116776  0.16680765  0.76965493     0.08100
C550        C  0.16440679  0.13645665  0.75279189    -0.02000
Br551      Br  0.16922164  0.12443412  0.70074281    -0.00600
Br552      Br  0.11417364  0.07601144  0.75208109    -0.00600
Br553      Br  0.19197610  0.21367961  0.83198693    -0.00600
Br554      Br  0.16706040  0.15286566  0.88786969    -0.00600
C555        C  0.18861854  0.01733257  0.76959933    -0.01700
C556        C  0.18375271  0.98858245  0.78176512     0.08000
C557        C  0.16570808  0.97640155  0.81312760    -0.01800
C558        C  0.15261311  0.99315208  0.83173231    -0.01800
C559        C  0.15425766  0.02005783  0.81564084     0.08100
C560        C  0.17138359  0.03049983  0.78254166    -0.02000
Br561      Br  0.16931119  0.05931537  0.74915664    -0.00600
Br562      Br  0.22031682  0.04001005  0.73633414    -0.00600
Br563      Br  0.13452055  0.97973671  0.88016191    -0.00600
Br564      Br  0.15976234  0.93741956  0.83105497    -0.00600
C565        C  0.34725623  0.50799887  0.60300026    -0.01700
C566        C  0.31751996  0.49090098  0.59345757     0.08000
C567        C  0.30914094  0.47168277  0.55913283    -0.01800
C568        C  0.32989790  0.46745190  0.53763193    -0.01800
C569        C  0.35765485  0.47774029  0.55333706     0.08100
C570        C  0.36694363  0.49973001  0.58473980    -0.02000
Br571      Br  0.40535476  0.51535647  0.60554459    -0.00600
Br572      Br  0.36026278  0.03970676  0.64435240    -0.00600
Br573      Br  0.32012132  0.44511054  0.48814624    -0.00600
Br574      Br  0.26925047  0.44689429  0.54411336    -0.00400
C575        C  0.30213028  0.33242463  0.57977357    -0.01700
C576        C  0.31542707  0.31806180  0.59972750     0.08000
C577        C  0.34559357  0.33016299  0.59853708    -0.01800
C578        C  0.36258324  0.35882068  0.58259646    -0.01800
C579        C  0.34927445  0.37367133  0.56335242     0.08100
C580        C  0.31889151  0.35876165  0.55960475    -0.02000
Br581      Br  0.29965199  0.37342047  0.52586376    -0.00600
Br582      Br  0.26110369  0.31795838  0.58232249    -0.00600
Br583      Br  0.40374518  0.37851211  0.59098391    -0.00600
Br584      Br  0.36361233  0.30780911  0.62001203    -0.00600
C585        C  0.36371068  0.29807287  0.82910889    -0.01700
C586        C  0.37125388  0.32956067  0.83828526     0.08000
C587        C  0.35029941  0.33938595  0.83155796    -0.01800
C588        C  0.32433062  0.31903409  0.81182460    -0.01800
C589        C  0.32125073  0.29113607  0.79355596     0.08100
C590        C  0.34072429  0.28022254  0.80330044    -0.02000
Br591      Br  0.33850203  0.24302252  0.77800565    -0.00600
Br592      Br  0.38592329  0.27995149  0.85009665    -0.00600
Br593      Br  0.29417006  0.33059836  0.80591876    -0.00600
Br594      Br  0.35750426  0.38117227  0.84457845    -0.00600
C595        C  0.47281879  0.32588181  0.74845008    -0.01700
C596        C  0.49275219  0.31927383  0.76752304     0.08000
C597        C  0.50427896  0.33454590  0.80362119    -0.01800
C598        C  0.49218135  0.35169742  0.82316738    -0.01800
C599        C  0.47151898  0.35746277  0.80417247     0.08100
C600        C  0.46473087  0.34728689  0.76520239    -0.02000
Br601      Br  0.44376750  0.36226209  0.73476120    -0.00600
Br602      Br  0.45418488  0.30366632  0.70075182    -0.00600
Br603      Br  0.50251886  0.36450474  0.87656407    -0.00600
Br604      Br  0.53655447  0.33213153  0.82609448    -0.00600
C605        C  0.44279053  0.89815378  0.37556514     0.03300
C606        C  0.46210451  0.89314818  0.35176523    -0.12900
C607        C  0.45212733  0.86715927  0.32583926     0.00800
C608        C  0.42243134  0.84801673  0.32171625    -0.11400
C609        C  0.40252974  0.85215992  0.34507579     0.03300
C610        C  0.41313920  0.87709068  0.37307561    -0.10800
H611        H  0.48494535  0.90879431  0.35463993     0.08900
H612        H  0.41467865  0.82873799  0.30044925     0.06400
H613        H  0.39873959  0.87978675  0.39342225     0.06200
C614        C  0.40546392  0.94362686  0.51324640     0.03300
C615        C  0.38988677  0.91341089  0.52579654    -0.12900
C616        C  0.36633647  0.90560668  0.04988823     0.00800
C617        C  0.35829697  0.92842486  0.06085384    -0.11400
C618        C  0.37149635  0.95761510  0.04560355     0.03300
C619        C  0.39544210  0.96545992  0.52205378    -0.10800
H620        H  0.39615058  0.89590529  0.51673827     0.08900
H621        H  0.34047323  0.92291016  0.08003697     0.06400
H622        H  0.40626350  0.98831301  0.51115996     0.06200
C623        C  0.09848935  0.54328630  0.35920621     0.03300
C624        C  0.11169359  0.52476151  0.34770410    -0.12900
C625        C  0.14006061  0.53850286  0.33329287     0.00800
C626        C  0.15451631  0.57102083  0.33220905    -0.11400
C627        C  0.13971998  0.58844937  0.33693216     0.03300
C628        C  0.11234035  0.57487858  0.35195926    -0.10800
H629        H  0.09932346  0.49992851  0.34840076     0.08900
H630        H  0.17656347  0.58260581  0.32301906     0.06400
H631        H  0.10142355  0.58885656  0.35649811     0.06200
N632        N  0.29231817  0.77640767  0.19182460    -0.36500
N633        N  0.25210222  0.74619993  0.12779907    -0.57000
N634        N  0.21175229  0.70586903  0.17966881    -0.36500
N635        N  0.25110798  0.73535494  0.24406599    -0.57000
C636        C  0.30320092  0.79803985  0.16544217     0.27100
C637        C  0.30454436  0.79042340  0.22629763     0.27100
C638        C  0.19511198  0.70125505  0.14815912     0.27100
C639        C  0.19423042  0.69707417  0.21004209     0.27100
C640        C  0.27572069  0.76461880  0.10873730     0.35700
C641        C  0.23362918  0.72475275  0.10179662     0.35700
C642        C  0.27502739  0.74711945  0.26674603     0.35700
C643        C  0.23167376  0.70918099  0.25949001     0.35700
C644        C  0.32248611  0.82613284  0.18346152    -0.21800
C645        C  0.32395960  0.82115092  0.22146176    -0.21800
C646        C  0.16666651  0.69008068  0.15862999    -0.21800
C647        C  0.16616264  0.68792386  0.19790936    -0.21800
C648        C  0.27238292  0.75480006  0.07019346    -0.22800
C649        C  0.24566526  0.72923261  0.06583514    -0.22800
C650        C  0.27066016  0.72860754  0.29718215    -0.22800
C651        C  0.24357446  0.70400320  0.29186340    -0.22800
C652        C  0.29805132  0.79247391  0.12515025    -0.18200
C653        C  0.29973389  0.77552924  0.26134246    -0.18200
C654        C  0.20265631  0.69203891  0.24632417    -0.18200
C655        C  0.20497155  0.70398799  0.11007335    -0.18200
H656        H  0.33501871  0.84787316  0.17049089     0.14700
H657        H  0.33797727  0.83848124  0.24275091     0.14700
H658        H  0.14815901  0.68332024  0.13979531     0.14700
H659        H  0.14712091  0.67862207  0.21515765     0.14700
H660        H  0.28720549  0.76560886  0.04750948     0.13000
H661        H  0.23570718  0.71641792  0.03910747     0.13000
H662        H  0.28533429  0.73233830  0.32081554     0.13000
H663        H  0.23357669  0.68512472  0.31055635     0.13000
H664        H  0.27972313  0.75270979  0.18612687     0.26300
H665        H  0.23300494  0.70977198  0.17941614     0.26300
C666        C  0.06121176  0.58278966  0.49366114     0.03300
C667        C  0.04281420  0.59076786  0.01537486    -0.12900
C668        C  0.05405143  0.61748589  0.04008266     0.00800
C669        C  0.08396171  0.63533404  0.04395245    -0.11400
C670        C  0.10277909  0.62663679  0.02481866     0.03300
C671        C  0.09129744  0.60044141  0.99877928    -0.10800
H672        H  0.01975056  0.57650251  0.51220995     0.08900
H673        H  0.09282505  0.65609208  0.06300927     0.06400
H674        H  0.10554435  0.59427323  0.48216875     0.06200
C675        C  0.06007381  0.94222549  0.49470580     0.03300
C676        C  0.04813991  0.91062171  0.00238214    -0.12900
C677        C  0.06220838  0.90028210  0.02719772     0.00800
C678        C  0.08936930  0.92145683  0.04207050    -0.11400
C679        C  0.10327915  0.95198550  0.03117403     0.03300
C680        C  0.08836087  0.96277784  0.00814695    -0.10800
H681        H  0.02723356  0.89417381  0.49043992     0.08900
H682        H  0.10028180  0.91392980  0.06191033     0.06400
H683        H  0.09845767  0.98684200  0.50138433     0.06200
C684        C  0.44232906  0.54051803  0.37747061     0.03300
C685        C  0.41302139  0.52086294  0.36837843    -0.12900
C686        C  0.39745648  0.53088677  0.34533112     0.00800
C687        C  0.41174721  0.56086862  0.33184865    -0.11400
C688        C  0.44009648  0.58168577  0.34318149     0.03300
C689        C  0.45498009  0.57146498  0.36682805    -0.10800
H690        H  0.40260732  0.49787923  0.37883554     0.08900
H691        H  0.40056271  0.56821383  0.31223802     0.06400
H692        H  0.47696438  0.58738070  0.37550652     0.06200
N693        N  0.01234972  0.78596387  0.18167495    -0.36500
N694        N  0.49502540  0.74411881  0.24307117    -0.57000
N695        N  0.99447561  0.69750559  0.18790611    -0.36500
N696        N  0.01202614  0.73934607  0.12674686    -0.57000
C697        C  0.51549614  0.80563452  0.21232793     0.27100
C698        C  0.02508325  0.80355260  0.15183172     0.27100
C699        C  0.48056762  0.67974690  0.21709342     0.27100
C700        C  0.99099027  0.67796080  0.15701090     0.27100
C701        C  0.49392632  0.76811007  0.26277167     0.35700
C702        C  0.48719943  0.72109238  0.26720470     0.35700
C703        C  0.01965794  0.76216308  0.10242021     0.35700
C704        C  0.01366634  0.71559659  0.10731726     0.35700
C705        C  0.53072481  0.83592051  0.20206613    -0.21800
C706        C  0.03687877  0.83464041  0.16399745    -0.21800
C707        C  0.46761357  0.64874280  0.20416764    -0.21800
C708        C  0.97440532  0.64764759  0.16635462    -0.21800
C709        C  0.48525948  0.76024632  0.29985642    -0.22800
C710        C  0.48231411  0.73103354  0.30315804    -0.22800
C711        C  0.02508593  0.75237851  0.06670054    -0.22800
C712        C  0.02265930  0.72347054  0.07034107    -0.22800
C713        C  0.50175520  0.79722904  0.24783887    -0.18200
C714        C  0.02484421  0.79265326  0.11321977    -0.18200
C715        C  0.00534593  0.68639879  0.12204746    -0.18200
C716        C  0.48106730  0.69029256  0.25588823    -0.18200
H717        H  0.53607798  0.85676524  0.21998051     0.14700
H718        H  0.04820388  0.85443345  0.14696748     0.14700
H719        H  0.45518064  0.62884208  0.22058603     0.14700
H720        H  0.96848003  0.62689477  0.14799133     0.14700
H721        H  0.48183648  0.77410033  0.32251273     0.13000
H722        H  0.47562920  0.71802393  0.32856747     0.13000
H723        H  0.03166046  0.76526975  0.04118911     0.13000
H724        H  0.02638508  0.70971888  0.04785245     0.13000
H725        H  0.99855909  0.76231763  0.17982115     0.26300
H726        H  0.00915795  0.72091725  0.19039701     0.26300
N727        N  0.20639713  0.97397199  0.19053628    -0.36500
N728        N  0.24146135  0.46772798  0.25044843    -0.57000
N729        N  0.28468317  0.98009683  0.19177232    -0.36500
N730        N  0.24828459  0.98435926  0.13302242    -0.57000
C731        C  0.18830751  0.46389890  0.22014763     0.27100
C732        C  0.19029760  0.96929212  0.15834294     0.27100
C733        C  0.29573048  0.97148802  0.22092211     0.27100
C734        C  0.29745274  0.97700420  0.15906735     0.27100
C735        C  0.22293193  0.47322512  0.27269894     0.35700
C736        C  0.26429894  0.47361409  0.27335359     0.35700
C737        C  0.23082282  0.99254903  0.11412001     0.35700
C738        C  0.27337753  0.99560647  0.11442384     0.35700
C739        C  0.16023269  0.95215372  0.20673206    -0.21800
C740        C  0.16138900  0.95476845  0.16754895    -0.21800
C741        C  0.31588082  0.96305894  0.20645481    -0.21800
C742        C  0.31605232  0.96524911  0.16749455    -0.21800
C743        C  0.23329547  0.48109813  0.31015292    -0.22800
C744        C  0.25907756  0.48038318  0.31085401    -0.22800
C745        C  0.24501861  0.00946929  0.08324528    -0.22800
C746        C  0.27209482  0.01141730  0.08344951    -0.22800
C747        C  0.19713893  0.47190656  0.25909802    -0.18200
C748        C  0.20140674  0.98175838  0.12249424    -0.18200
C749        C  0.29568905  0.98835254  0.12305687    -0.18200
C750        C  0.29044607  0.47478365  0.26041146    -0.18200
H751        H  0.14108787  0.44394689  0.22378885     0.14700
H752        H  0.14309973  0.94860980  0.14854715     0.14700
H753        H  0.32982734  0.95669940  0.22181717     0.14700
H754        H  0.32969973  0.96034868  0.14802411     0.14700
H755        H  0.22346623  0.48695388  0.33438954     0.13000
H756        H  0.27298389  0.48576135  0.33588325     0.13000
H757        H  0.23643718  0.01852685  0.06216829     0.13000
H758        H  0.28854478  0.02222853  0.06254467     0.13000
H759        H  0.22842051  0.98828029  0.19366995     0.26300
H760        H  0.27260698  0.99185675  0.19516071     0.26300
O761        O  0.48685389  0.54796230  0.40324663    -0.80800
O762        O  0.05110669  0.98117443  0.46754038    -0.65400
O763        O  0.00590301  0.50314868  0.40243106    -1.12000
C764        C  0.43243106  0.95181140  0.49212346     1.06100
O765        O  0.01535510  0.93375849  0.46836698    -0.78700
O766        O  0.46370340  0.91529763  0.43653178    -0.66200
Ni767      Ni  0.02014626  0.54419476  0.38670901     1.34900
C768        C  0.45464425  0.92223900  0.40706080     0.84900
O769        O  0.06234647  0.50981952  0.40093460    -0.79200
O770        O  0.05468885  0.54412682  0.36905201    -0.89500
C771        C  0.04146749  0.95319543  0.47587258     0.84400
O772        O  0.03887745  0.56597228  0.43340899    -0.67700
O773        O  0.44669989  0.93759091  0.49994792    -0.87000
C774        C  0.04842177  0.55882797  0.46226642     0.85300
C775        C  0.06981698  0.53090759  0.37695988     1.06800
H776        H  0.50083078  0.99183309  0.48932424     0.38600
O777        O  0.49641678  0.97828355  0.46631425    -1.09600
O778        O  0.45639127  0.94879788  0.40312816    -0.66300
Ni779      Ni  0.47266282  0.98773400  0.43401429     1.26300
O780        O  0.04637514  0.53216725  0.46570846    -0.66500
O781        O  0.44026421  0.97230443  0.46745546    -0.78800
C782        C  0.46085023  0.52882602  0.39496115     0.84700
O783        O  0.45138554  0.50040472  0.40108570    -0.66000
Ni784      Ni  0.48168244  0.93748328  0.48330476     1.27400
Ni785      Ni  0.02973612  0.99361709  0.43449172     1.26100
H786        H  0.00156212  0.98992411  0.37924783     0.39200
C787        C  0.32656536  0.51569694  0.30605693    -0.01700
C788        C  0.31518784  0.48557352  0.28841388     0.08000
C789        C  0.32811856  0.46696173  0.29734981    -0.01800
C790        C  0.35558086  0.48090565  0.31577766    -0.01800
C791        C  0.36651559  0.51115609  0.33352085     0.08100
C792        C  0.34873445  0.52547958  0.33341120    -0.02000
Br793      Br  0.35275843  0.55628781  0.37284241    -0.00600
Br794      Br  0.31460542  0.54533857  0.29072372    -0.00600
Br795      Br  0.37824647  0.45935745  0.31271758    -0.00600
Br796      Br  0.30829701  0.92288260  0.28529111    -0.00600
C797        C  0.48026453  0.62417228  0.30785965    -0.01700
C798        C  0.45407638  0.61322507  0.32769762     0.08000
C799        C  0.43937290  0.63119174  0.32858965    -0.01800
C800        C  0.44697065  0.65526687  0.30385996    -0.01800
C801        C  0.47338269  0.66667607  0.28509192     0.08100
C802        C  0.49098104  0.65233555  0.28982322    -0.02000
Br803      Br  0.02923731  0.67050543  0.26966353    -0.00600
Br804      Br  0.00019704  0.59967595  0.30079219    -0.00600
Br805      Br  0.41940932  0.66957322  0.29259332    -0.00600
Br806      Br  0.41077384  0.62538514  0.36606686    -0.00600
C807        C  0.16472158  0.99791907  0.10059606    -0.01700
C808        C  0.18109671  0.98211268  0.09262657     0.08000
C809        C  0.17578519  0.96405569  0.05761730    -0.01800
C810        C  0.15337897  0.96042412  0.03269845    -0.01800
C811        C  0.13360145  0.97083220  0.04475421     0.08100
C812        C  0.14020198  0.99110715  0.07768485    -0.02000
Br813      Br  0.11411534  0.00692326  0.09332468    -0.00600
Br814      Br  0.17463575  0.02726635  0.14424688    -0.00600
Br815      Br  0.14774084  0.93860464  0.98312449    -0.00600
Br816      Br  0.19583298  0.94029705  0.04565347    -0.00600
C817        C  0.02164669  0.85500386  0.05769201    -0.01700
C818        C  0.04878013  0.86805239  0.04008185     0.08000
C819        C  0.06544990  0.85224448  0.04073972    -0.01800
C820        C  0.05836376  0.82812342  0.06523276    -0.01800
C821        C  0.03161479  0.81548021  0.08331491     0.08100
C822        C  0.01239658  0.82751204  0.07679324    -0.02000
Br823      Br  0.47395739  0.80728222  0.09638208    -0.00600
Br824      Br  0.49819679  0.87587401  0.06034732    -0.00600
Br825      Br  0.08690567  0.81533766  0.07714769    -0.00600
Br826      Br  0.09791599  0.86320571  0.00787803    -0.00600
C827        C  0.04255322  0.63696279  0.10174186    -0.01700
C828        C  0.03559716  0.62787073  0.06253736     0.08000
C829        C  0.01440639  0.63340927  0.04472858    -0.01800
C830        C  0.00218852  0.64981178  0.06553794    -0.01800
C831        C  0.01369773  0.66408533  0.10201008     0.08100
C832        C  0.03358638  0.65700143  0.12031927    -0.02000
Br833      Br  0.05078148  0.67654928  0.16969734    -0.00600
Br834      Br  0.06460962  0.62207450  0.13021760    -0.00600
Br835      Br  0.46985834  0.65282875  0.04425002    -0.00600
Br836      Br  0.00335882  0.62118797  0.49139501    -0.00600
C837        C  0.17409626  0.65239532  0.07609646    -0.01700
C838        C  0.18404679  0.68463925  0.07872494     0.08000
C839        C  0.17137795  0.69745307  0.05496388    -0.01800
C840        C  0.14711231  0.67783772  0.03179630    -0.01800
C841        C  0.13403953  0.64540157  0.03454992     0.08100
C842        C  0.14848738  0.63268136  0.05538854    -0.02000
Br843      Br  0.13170696  0.58862072  0.05983897    -0.00600
Br844      Br  0.19533138  0.63545651  0.10202842    -0.00600
Br845      Br  0.13030551  0.69536212  0.99826332    -0.00600
Br846      Br  0.18553254  0.74162305  0.05668588    -0.00600
C847        C  0.14578507  0.61292069  0.27546890    -0.01700
C848        C  0.14948690  0.61673178  0.31548158     0.08000
C849        C  0.16466115  0.64676349  0.33283682    -0.01800
C850        C  0.17813604  0.67214636  0.30949537    -0.01800
C851        C  0.18115356  0.66680890  0.26966786     0.08100
C852        C  0.16441155  0.63645459  0.25280516    -0.02000
Br853      Br  0.16924848  0.62443625  0.20076350    -0.00600
Br854      Br  0.11418903  0.57600209  0.25208674    -0.00600
Br855      Br  0.19192301  0.71367943  0.33198792    -0.00600
Br856      Br  0.16698797  0.65287129  0.38787947    -0.00600
C857        C  0.18862922  0.51733069  0.26960454    -0.01700
C858        C  0.18376168  0.48858067  0.28177259     0.08000
C859        C  0.16571727  0.47640141  0.31313480    -0.01800
C860        C  0.15262182  0.49315216  0.33173689    -0.01800
C861        C  0.15426811  0.52005875  0.31564497     0.08100
C862        C  0.17139643  0.53050082  0.28254722    -0.02000
Br863      Br  0.16932908  0.55931850  0.24916190    -0.00600
Br864      Br  0.22032429  0.54000124  0.23633072    -0.00600
Br865      Br  0.13452548  0.47973443  0.38016368    -0.00600
Br866      Br  0.15977359  0.43742080  0.33106500    -0.00600
C867        C  0.34727414  0.00800800  0.10302016    -0.01700
C868        C  0.31753731  0.99091271  0.09347692     0.08000
C869        C  0.30915750  0.97169705  0.05915006    -0.01800
C870        C  0.32991360  0.96746803  0.03764485    -0.01800
C871        C  0.35767083  0.97775431  0.05334702     0.08100
C872        C  0.36696160  0.99974341  0.08475045    -0.02000
Br873      Br  0.40537989  0.01538188  0.10553489    -0.00600
Br874      Br  0.36024691  0.53971137  0.14433093    -0.00600
Br875      Br  0.32013604  0.94513270  0.98815555    -0.00600
Br876      Br  0.26926647  0.94690603  0.04413481    -0.00400
C877        C  0.30212382  0.83243253  0.07978719    -0.01700
C878        C  0.31541611  0.81807112  0.09975343     0.08000
C879        C  0.34558335  0.83017485  0.09858051    -0.01800
C880        C  0.36257648  0.85883389  0.08264561    -0.01800
C881        C  0.34927262  0.87368038  0.06338314     0.08100
C882        C  0.31889029  0.85876999  0.05962125    -0.02000
Br883      Br  0.29965941  0.87343170  0.02586986    -0.00600
Br884      Br  0.26109610  0.81796369  0.08231612    -0.00600
Br885      Br  0.40373450  0.87853810  0.09107341    -0.00600
Br886      Br  0.36359796  0.80782388  0.12007457    -0.00600
C887        C  0.36368166  0.79807455  0.32913737    -0.01700
C888        C  0.37124119  0.82956769  0.33830085     0.08000
C889        C  0.35029844  0.83940827  0.33156724    -0.01800
C890        C  0.32432291  0.81906193  0.31184539    -0.01800
C891        C  0.32122891  0.79115648  0.29358267     0.08100
C892        C  0.34069189  0.78022961  0.30333170    -0.02000
Br893      Br  0.33845062  0.74301656  0.27804995    -0.00600
Br894      Br  0.38587404  0.77993711  0.35014299    -0.00600
Br895      Br  0.29417196  0.83064200  0.30594960    -0.00600
Br896      Br  0.35752988  0.88120761  0.34455600    -0.00600
C897        C  0.47279654  0.82584495  0.24844508    -0.01700
C898        C  0.49274187  0.81925495  0.26751609     0.08000
C899        C  0.50427076  0.83453504  0.30360923    -0.01800
C900        C  0.49217555  0.85169194  0.32314853    -0.01800
C901        C  0.47149819  0.85743738  0.30415893     0.08100
C902        C  0.46469536  0.84724027  0.26519528    -0.02000
Br903      Br  0.44369830  0.86217632  0.23475479    -0.00600
Br904      Br  0.45416889  0.80361816  0.20074876    -0.00600
Br905      Br  0.50254404  0.86454109  0.37653015    -0.00600
Br906      Br  0.53654250  0.83211635  0.32608878    -0.00600
C907        C  0.44279004  0.89815412  0.87556679     0.03300
C908        C  0.46210407  0.89314773  0.85176793    -0.12900
C909        C  0.45212688  0.86715869  0.82584221     0.00800
C910        C  0.42243083  0.84801664  0.82171842    -0.11400
C911        C  0.40252911  0.85216065  0.84507682     0.03300
C912        C  0.41313857  0.87709164  0.87307639    -0.10800
H913        H  0.48494495  0.90879350  0.85464316     0.08900
H914        H  0.41467818  0.82873781  0.80045155     0.06400
H915        H  0.39873884  0.87978834  0.89342223     0.06200
C916        C  0.40546454  0.94362841  0.01324882     0.03300
C917        C  0.38988670  0.91341228  0.02579809    -0.12900
C918        C  0.36633619  0.90560494  0.54988607     0.00800
C919        C  0.35829582  0.92842257  0.56085051    -0.11400
C920        C  0.37149452  0.95761252  0.54559955     0.03300
C921        C  0.39544367  0.96546209  0.02205740    -0.10800
H922        H  0.39614973  0.89590628  0.01673861     0.08900
H923        H  0.34047190  0.92290761  0.58003335     0.06400
H924        H  0.40626554  0.98831530  0.01116396     0.06200
C925        C  0.09848925  0.54328679  0.85920724     0.03300
C926        C  0.11169328  0.52476198  0.84770394    -0.12900
C927        C  0.14005993  0.53850329  0.83329145     0.00800
C928        C  0.15451554  0.57102120  0.83220720    -0.11400
C929        C  0.13971963  0.58845001  0.83693276     0.03300
C930        C  0.11234044  0.57487929  0.85196127    -0.10800
H931        H  0.09932336  0.49992896  0.84840077     0.08900
H932        H  0.17656223  0.58260596  0.82301535     0.06400
H933        H  0.10142393  0.58885745  0.85650160     0.06200
N934        N  0.29231707  0.77640842  0.69182532    -0.36500
N935        N  0.25210186  0.74619972  0.62779964    -0.57000
N936        N  0.21175144  0.70586965  0.67966981    -0.36500
N937        N  0.25110655  0.73535634  0.74406708    -0.57000
C938        C  0.30319983  0.79804024  0.66544248     0.27100
C939        C  0.30454268  0.79042477  0.72629835     0.27100
C940        C  0.19511135  0.70125560  0.64815987     0.27100
C941        C  0.19422942  0.69707521  0.71004298     0.27100
C942        C  0.27572043  0.76461828  0.60873782     0.35700
C943        C  0.23362883  0.72475232  0.60179741     0.35700
C944        C  0.27502595  0.74712113  0.76674717     0.35700
C945        C  0.23167253  0.70918225  0.75949105     0.35700
C946        C  0.32248430  0.82613366  0.68346158    -0.21800
C947        C  0.32395749  0.82115237  0.72146209    -0.21800
C948        C  0.16666584  0.69008172  0.65863044    -0.21800
C949        C  0.16616177  0.68792524  0.69790990    -0.21800
C950        C  0.27238277  0.75479907  0.57019415    -0.22800
C951        C  0.24566503  0.72923171  0.56583598    -0.22800
C952        C  0.27065892  0.72860926  0.79718330    -0.22800
C953        C  0.24357341  0.70400462  0.79186437    -0.22800
C954        C  0.29805096  0.79247362  0.62515053    -0.18200
C955        C  0.29973233  0.77553100  0.76134343    -0.18200
C956        C  0.20265505  0.69204004  0.74632530    -0.18200
C957        C  0.20497108  0.70398794  0.61007417    -0.18200
H958        H  0.33501669  0.84787386  0.67049064     0.14700
H959        H  0.33797475  0.83848314  0.74275110     0.14700
H960        H  0.14815845  0.68332135  0.63979555     0.14700
H961        H  0.14711998  0.67862381  0.71515805     0.14700
H962        H  0.28720542  0.76560753  0.54751011     0.13000
H963        H  0.23570696  0.71641683  0.53910841     0.13000
H964        H  0.28533305  0.73234016  0.82081677     0.13000
H965        H  0.23357584  0.68512606  0.81055722     0.13000
H966        H  0.27972255  0.75271039  0.68612796     0.26300
H967        H  0.23300405  0.70977236  0.67941743     0.26300
C968        C  0.06121200  0.58278914  0.99366236     0.03300
C969        C  0.04281390  0.59076921  0.51537236    -0.12900
C970        C  0.05405123  0.61748698  0.54008069     0.00800
C971        C  0.08396149  0.63533457  0.54395139    -0.11400
C972        C  0.10277885  0.62663693  0.52481834     0.03300
C973        C  0.09129721  0.60044137  0.49877917    -0.10800
H974        H  0.01975092  0.57650043  0.01221346     0.08900
H975        H  0.09282478  0.65609239  0.56300860     0.06400
H976        H  0.10554456  0.59427380  0.98216795     0.06200
C977        C  0.06007432  0.94222551  0.99470509     0.03300
C978        C  0.04813940  0.91062194  0.50238431    -0.12900
C979        C  0.06220827  0.90028304  0.52720035     0.00800
C980        C  0.08936915  0.92145833  0.54207268    -0.11400
C981        C  0.10327871  0.95198659  0.53117487     0.03300
C982        C  0.08836035  0.96277816  0.50814701    -0.10800
H983        H  0.02723411  0.89417386  0.99043735     0.08900
H984        H  0.10028201  0.91393204  0.56191295     0.06400
H985        H  0.09845819  0.98684194  0.00138537     0.06200
C986        C  0.44232853  0.54051854  0.87747244     0.03300
C987        C  0.41302077  0.52086370  0.86838003    -0.12900
C988        C  0.39745619  0.53088771  0.84533209     0.00800
C989        C  0.41174736  0.56086963  0.83184986    -0.11400
C990        C  0.44009653  0.58168654  0.84318338     0.03300
C991        C  0.45497979  0.57146552  0.86683012    -0.10800
H992        H  0.40260651  0.49788006  0.87883736     0.08900
H993        H  0.40056336  0.56821513  0.81223876     0.06400
H994        H  0.47696405  0.58738113  0.87550889     0.06200
N995        N  0.01235239  0.78596535  0.68167874    -0.36500
N996        N  0.49502612  0.74411939  0.74307370    -0.57000
N997        N  0.99447633  0.69750614  0.68790804    -0.36500
N998        N  0.01202884  0.73934755  0.62675000    -0.57000
C999        C  0.51549803  0.80563573  0.71233175     0.27100
C1000       C  0.02508596  0.80355425  0.65183568     0.27100
C1001       C  0.48056753  0.67974733  0.71709492     0.27100
C1002       C  0.99099094  0.67796152  0.65701258     0.27100
C1003       C  0.49392750  0.76811070  0.76277475     0.35700
C1004       C  0.48719972  0.72109263  0.76720680     0.35700
C1005       C  0.01966167  0.76216511  0.60242394     0.35700
C1006       C  0.01366887  0.71559804  0.60732015     0.35700
C1007       C  0.53072634  0.83592180  0.70207018    -0.21800
C1008       C  0.03688073  0.83464195  0.66400157    -0.21800
C1009       C  0.46761297  0.64874334  0.70416870    -0.21800
C1010       C  0.97440515  0.64764832  0.66635577    -0.21800
C1011       C  0.48526045  0.76024659  0.79985935    -0.22800
C1012       C  0.48231457  0.73103358  0.80316037    -0.22800
C1013       C  0.02509035  0.75238097  0.56670443    -0.22800
C1014       C  0.02266293  0.72347263  0.57034450    -0.22800
C1015       C  0.50175675  0.79722991  0.74784247    -0.18200
C1016       C  0.02484754  0.79265515  0.61322372    -0.18200
C1017       C  0.00534708  0.68639960  0.62204941    -0.18200
C1018       C  0.48106710  0.69029277  0.75588980    -0.18200
H1019       H  0.53607885  0.85676637  0.71998454     0.14700
H1020       H  0.04820558  0.85443511  0.64697176     0.14700
H1021       H  0.45517943  0.62884252  0.72058669     0.14700
H1022       H  0.96847960  0.62689560  0.64799219     0.14700
H1023       H  0.48183755  0.77410045  0.82251596     0.13000
H1024       H  0.47562944  0.71802371  0.82856959     0.13000
H1025       H  0.03166555  0.76527253  0.54119329     0.13000
H1026       H  0.02638880  0.70972112  0.54785581     0.13000
H1027       H  0.99856215  0.76231907  0.67982464     0.26300
H1028       H  0.00915913  0.72091762  0.69039956     0.26300
N1029       N  0.20639695  0.97397227  0.69053520    -0.36500
N1030       N  0.24146117  0.46772788  0.75044718    -0.57000
N1031       N  0.28468200  0.98009475  0.69177014    -0.36500
N1032       N  0.24828338  0.98435781  0.63302060    -0.57000
C1033       C  0.18830753  0.46389947  0.72014685     0.27100
C1034       C  0.19029717  0.96929213  0.65834204     0.27100
C1035       C  0.29572967  0.97148636  0.72092000     0.27100
C1036       C  0.29745118  0.97700164  0.65906504     0.27100
C1037       C  0.22293239  0.47322622  0.77269770     0.35700
C1038       C  0.26429896  0.47361386  0.77335195     0.35700
C1039       C  0.23082201  0.99254835  0.61411859     0.35700
C1040       C  0.27337600  0.99560393  0.61442136     0.35700
C1041       C  0.16023265  0.95215386  0.70673153    -0.21800
C1042       C  0.16138865  0.95476830  0.66754838    -0.21800
C1043       C  0.31587990  0.96305712  0.70645262    -0.21800
C1044       C  0.31605093  0.96524677  0.66749230    -0.21800
C1045       C  0.23329651  0.48109987  0.81015138    -0.22800
C1046       C  0.25907829  0.48038411  0.81085228    -0.22800
C1047       C  0.24501785  0.00946814  0.58324351    -0.22800
C1048       C  0.27209353  0.01141477  0.58344691    -0.22800
C1049       C  0.19713933  0.47190782  0.75909702    -0.18200
C1050       C  0.20140611  0.98175847  0.62249331    -0.18200
C1051       C  0.29568714  0.98834939  0.62305425    -0.18200
C1052       C  0.29044580  0.47478263  0.76040946    -0.18200
H1053       H  0.14108791  0.44394722  0.72378864     0.14700
H1054       H  0.14309923  0.94860947  0.64854678     0.14700
H1055       H  0.32982673  0.95669796  0.72181494     0.14700
H1056       H  0.32969823  0.96034624  0.64802177     0.14700
H1057       H  0.22346782  0.48695653  0.83438791     0.13000
H1058       H  0.27298495  0.48576259  0.83588126     0.13000
H1059       H  0.23643669  0.01852612  0.56216669     0.13000
H1060       H  0.28854335  0.02222533  0.56254166     0.13000
H1061       H  0.22842032  0.98828086  0.69366860     0.26300
H1062       H  0.27260579  0.99185469  0.69515848     0.26300
O1063       O  0.48685355  0.54796264  0.90324782    -0.80800
O1064       O  0.05110679  0.98117459  0.96754063    -0.65400
O1065       O  0.00590260  0.50314887  0.90243212    -1.12000
C1066       C  0.43243136  0.95181246  0.99212541     1.06100
O1067       O  0.01535505  0.93375881  0.96836849    -0.78700
O1068       O  0.46370336  0.91529821  0.93653315    -0.66200
Ni1069     Ni  0.02014598  0.54419509  0.88671038     1.34900
C1070       C  0.45464381  0.92223943  0.90706240     0.84900
O1071       O  0.06234603  0.50981936  0.90093497    -0.79200
O1072       O  0.05468875  0.54412736  0.86905352    -0.89500
C1073       C  0.04146766  0.95319568  0.97587303     0.84400
O1074       O  0.03887696  0.56597220  0.93341064    -0.67700
O1075       O  0.44669992  0.93759158  0.99994936    -0.87000
C1076       C  0.04842173  0.55882777  0.96226754     0.85300
C1077       C  0.06981677  0.53090789  0.87696087     1.06800
H1078       H  0.50083112  0.99183357  0.98932529     0.38600
O1079       O  0.49641688  0.97828402  0.96631541    -1.09600
O1080       O  0.45639066  0.94879827  0.90312990    -0.66300
Ni1081     Ni  0.47266273  0.98773456  0.93401576     1.26300
O1082       O  0.04637528  0.53216713  0.96570909    -0.66500
O1083       O  0.44026453  0.97230554  0.96745752    -0.78800
C1084       C  0.46084978  0.52882642  0.89496277     0.84700
O1085       O  0.45138510  0.50040517  0.90108751    -0.66000
Ni1086     Ni  0.48168244  0.93748381  0.98330614     1.27400
Ni1087     Ni  0.02973593  0.99361718  0.93449234     1.26100
H1088       H  0.00156156  0.98992437  0.87924872     0.39200
C1089       C  0.32656575  0.51569727  0.80605270    -0.01700
C1090       C  0.31518817  0.48557338  0.78841126     0.08000
C1091       C  0.32811911  0.46696203  0.79734857    -0.01800
C1092       C  0.35558102  0.48090632  0.81577775    -0.01800
C1093       C  0.36651546  0.51115704  0.83352009     0.08100
C1094       C  0.34873446  0.52548069  0.83340774    -0.02000
Br1095     Br  0.35275744  0.55628996  0.87283684    -0.00600
Br1096     Br  0.31460582  0.54533819  0.79071647    -0.00600
Br1097     Br  0.37824657  0.45935797  0.81272102    -0.00600
Br1098     Br  0.30829850  0.92288285  0.78528987    -0.00600
C1099       C  0.48026472  0.62417288  0.80786164    -0.01700
C1100       C  0.45407674  0.61322588  0.82769991     0.08000
C1101       C  0.43937340  0.63119263  0.82859229    -0.01800
C1102       C  0.44697077  0.65526739  0.80386215    -0.01800
C1103       C  0.47338247  0.66667620  0.78509331     0.08100
C1104       C  0.49098092  0.65233584  0.78982463    -0.02000
Br1105     Br  0.02923719  0.67050581  0.76966481    -0.00600
Br1106     Br  0.00019756  0.59967687  0.80079514    -0.00600
Br1107     Br  0.41940940  0.66957376  0.79259626    -0.00600
Br1108     Br  0.41077537  0.62538667  0.86607092    -0.00600
C1109       C  0.16472067  0.99791937  0.60059668    -0.01700
C1110       C  0.18109608  0.98211339  0.59262610     0.08000
C1111       C  0.17578483  0.96405734  0.55761604    -0.01800
C1112       C  0.15337864  0.96042623  0.53269749    -0.01800
C1113       C  0.13360099  0.97083377  0.54475421     0.08100
C1114       C  0.14020123  0.99110792  0.57768551    -0.02000
Br1115     Br  0.11411412  0.00692321  0.59332625    -0.00600
Br1116     Br  0.17463380  0.02726497  0.64424915    -0.00600
Br1117     Br  0.14774026  0.93860746  0.48312294    -0.00600
Br1118     Br  0.19583253  0.94029882  0.54565071    -0.00600
C1119       C  0.02164749  0.85500410  0.55769508    -0.01700
C1120       C  0.04878090  0.86805344  0.54008487     0.08000
C1121       C  0.06545164  0.85224661  0.54074320    -0.01800
C1122       C  0.05836638  0.82812594  0.56523660    -0.01800
C1123       C  0.03161748  0.81548200  0.58331887     0.08100
C1124       C  0.01239842  0.82751269  0.57679691    -0.02000
Br1125     Br  0.47395952  0.80728182  0.59638621    -0.00600
Br1126     Br  0.49819630  0.87587267  0.56034969    -0.00600
Br1127     Br  0.08690927  0.81534166  0.57715184    -0.00600
Br1128     Br  0.09791786  0.86320875  0.50788155    -0.00600
C1129       C  0.04255221  0.63696166  0.60174097    -0.01700
C1130       C  0.03559709  0.62787175  0.56253586     0.08000
C1131       C  0.01440739  0.63341209  0.54472739    -0.01800
C1132       C  0.00218932  0.64981386  0.56553799    -0.01800
C1133       C  0.01369782  0.66408552  0.60201115     0.08100
C1134       C  0.03358551  0.65699992  0.62031983    -0.02000
Br1135     Br  0.05077978  0.67654511  0.66969919    -0.00600
Br1136     Br  0.06460753  0.62207142  0.63021543    -0.00600
Br1137     Br  0.46986011  0.65283278  0.54425014    -0.00600
Br1138     Br  0.00335541  0.62118113  0.99139744    -0.00600
C1139       C  0.17409549  0.65239514  0.57609789    -0.01700
C1140       C  0.18404636  0.68463910  0.57872579     0.08000
C1141       C  0.17137785  0.69745295  0.55496419    -0.01800
C1142       C  0.14711239  0.67783764  0.53179626    -0.01800
C1143       C  0.13403924  0.64540149  0.53455034     0.08100
C1144       C  0.14848653  0.63268124  0.55539006    -0.02000
Br1145     Br  0.13170519  0.58862074  0.55984221    -0.00600
Br1146     Br  0.19533037  0.63545624  0.60203027    -0.00600
Br1147     Br  0.13030622  0.69536216  0.49826239    -0.00600
Br1148     Br  0.18553262  0.74162295  0.55668599    -0.00600
C1149       C  0.14578330  0.61292203  0.77547041    -0.01700
C1150       C  0.14948614  0.61673271  0.81548293     0.08000
C1151       C  0.16466134  0.64676423  0.83283836    -0.01800
C1152       C  0.17813558  0.67214727  0.80949704    -0.01800
C1153       C  0.18115226  0.66681006  0.76966918     0.08100
C1154       C  0.16440961  0.63645586  0.75280646    -0.02000
Br1155     Br  0.16924576  0.62443712  0.70076470    -0.00600
Br1156     Br  0.11418648  0.57600388  0.75208883    -0.00600
Br1157     Br  0.19192267  0.71368013  0.83199032    -0.00600
Br1158     Br  0.16699078  0.65287149  0.88788106    -0.00600
C1159       C  0.18862774  0.51733102  0.76960174    -0.01700
C1160       C  0.18376187  0.48858193  0.78177138     0.08000
C1161       C  0.16571825  0.47640318  0.81313451    -0.01800
C1162       C  0.15262263  0.49315383  0.83173639    -0.01800
C1163       C  0.15426727  0.52005916  0.81564316     0.08100
C1164       C  0.17139420  0.53050036  0.78254418    -0.02000
Br1165     Br  0.16932405  0.55931589  0.74915782    -0.00600
Br1166     Br  0.22032177  0.54000177  0.73632663    -0.00600
Br1167     Br  0.13452841  0.47973797  0.88016475    -0.00600
Br1168     Br  0.15977541  0.43742326  0.83106598    -0.00600
C1169       C  0.34727192  0.00800492  0.60301632    -0.01700
C1170       C  0.31753500  0.99090901  0.59347401     0.08000
C1171       C  0.30915482  0.97169270  0.55914770    -0.01800
C1172       C  0.32991084  0.96746407  0.53764180    -0.01800
C1173       C  0.35766850  0.97775123  0.55334302     0.08100
C1174       C  0.36695941  0.99974062  0.58474615    -0.02000
Br1175     Br  0.40537796  0.01537970  0.60552988    -0.00600
Br1176     Br  0.36024489  0.53970895  0.64432626    -0.00600
Br1177     Br  0.32013272  0.94512832  0.48815281    -0.00600
Br1178     Br  0.26926356  0.94690042  0.54413439    -0.00400
C1179       C  0.30212386  0.83243108  0.57978552    -0.01700
C1180       C  0.31541609  0.81807041  0.59975339     0.08000
C1181       C  0.34558348  0.83017474  0.59858199    -0.01800
C1182       C  0.36257656  0.85883344  0.58264626    -0.01800
C1183       C  0.34927266  0.87367880  0.56338151     0.08100
C1184       C  0.31889038  0.85876787  0.55961859    -0.02000
Br1185     Br  0.29965964  0.87342827  0.52586510    -0.00600
Br1186     Br  0.26109619  0.81796274  0.58231420    -0.00600
Br1187     Br  0.40373441  0.87853901  0.59107605    -0.00600
Br1188     Br  0.36359844  0.80782542  0.62007975    -0.00600
C1189       C  0.36368019  0.79807569  0.82913793    -0.01700
C1190       C  0.37124043  0.82956907  0.83830103     0.08000
C1191       C  0.35029823  0.83941035  0.83156689    -0.01800
C1192       C  0.32432236  0.81906421  0.81184557    -0.01800
C1193       C  0.32122766  0.79115833  0.79358331     0.08100
C1194       C  0.34069030  0.78023102  0.80333233    -0.02000
Br1195     Br  0.33844841  0.74301764  0.77805067    -0.00600
Br1196     Br  0.38587143  0.77993726  0.85014433    -0.00600
Br1197     Br  0.29417192  0.83064508  0.80594977    -0.00600
Br1198     Br  0.35753080  0.88121025  0.84455412    -0.00600
C1199       C  0.47279765  0.82584526  0.74844836    -0.01700
C1200       C  0.49274297  0.81925546  0.76751970     0.08000
C1201       C  0.50427105  0.83453507  0.80361334    -0.01800
C1202       C  0.49217518  0.85169136  0.82315248    -0.01800
C1203       C  0.47149783  0.85743658  0.80416248     0.08100
C1204       C  0.46469565  0.84723988  0.76519865    -0.02000
Br1205     Br  0.44369877  0.86217589  0.73475774    -0.00600
Br1206     Br  0.45417103  0.80361903  0.70075137    -0.00600
Br1207     Br  0.50254298  0.86454024  0.87653431    -0.00600
Br1208     Br  0.53654251  0.83211647  0.82609399    -0.00600
C1209       C  0.94279218  0.39815351  0.37557970     0.03300
C1210       C  0.96211320  0.39315598  0.35178600    -0.12900
C1211       C  0.95214281  0.36717817  0.32584468     0.00800
C1212       C  0.92244790  0.34803841  0.32170083    -0.11400
C1213       C  0.90253973  0.35216464  0.34506534     0.03300
C1214       C  0.91314126  0.37708719  0.37307765    -0.10800
H1215       H  0.98495392  0.40879995  0.35467547     0.08900
H1216       H  0.91470151  0.32877080  0.30041800     0.06400
H1217       H  0.89873688  0.37977434  0.39342369     0.06200
C1218       C  0.90546078  0.44363325  0.51323484     0.03300
C1219       C  0.88988271  0.41341304  0.52577027    -0.12900
C1220       C  0.86633373  0.40560219  0.04986495     0.00800
C1221       C  0.85829167  0.42841707  0.06083951    -0.11400
C1222       C  0.87148772  0.45760972  0.04559488     0.03300
C1223       C  0.89543605  0.46546259  0.52204820    -0.10800
H1224       H  0.89614660  0.39590994  0.51669946     0.08900
H1225       H  0.84046830  0.42289803  0.08002433     0.06400
H1226       H  0.90625715  0.48831845  0.51116194     0.06200
C1227       C  0.59848004  0.04328882  0.35919239     0.03300
C1228       C  0.61168485  0.02476271  0.34769937    -0.12900
C1229       C  0.64005257  0.03850235  0.33329138     0.00800
C1230       C  0.65451027  0.07102008  0.33220722    -0.11400
C1231       C  0.63971415  0.08844915  0.33691857     0.03300
C1232       C  0.61233133  0.07487974  0.35193744    -0.10800
H1233       H  0.59931492  0.99992999  0.34840075     0.08900
H1234       H  0.67655886  0.08260354  0.32302225     0.06400
H1235       H  0.60141432  0.08885821  0.35646820     0.06200
N1236       N  0.79234324  0.27638898  0.19179472    -0.36500
N1237       N  0.75211205  0.24619756  0.12778024    -0.57000
N1238       N  0.71176386  0.20587024  0.17965484    -0.36500
N1239       N  0.75113180  0.23533772  0.24403995    -0.57000
C1240       C  0.80322621  0.29802351  0.16541510     0.27100
C1241       C  0.80457310  0.29040063  0.22626775     0.27100
C1242       C  0.69512036  0.20126610  0.14815225     0.27100
C1243       C  0.69424658  0.19707778  0.21003258     0.27100
C1244       C  0.77572962  0.26461191  0.10871344     0.35700
C1245       C  0.73363091  0.22475563  0.10177977     0.35700
C1246       C  0.77505519  0.24709352  0.26671126     0.35700
C1247       C  0.73169609  0.20916347  0.25946218     0.35700
C1248       C  0.82251698  0.32611333  0.18343590    -0.21800
C1249       C  0.82399157  0.32112751  0.22143476    -0.21800
C1250       C  0.66667774  0.19010157  0.15863216    -0.21800
C1251       C  0.66617909  0.18794096  0.19791063    -0.21800
C1252       C  0.77238256  0.25479608  0.07016816    -0.22800
C1253       C  0.74566041  0.22923476  0.06581426    -0.22800
C1254       C  0.77069035  0.22857446  0.29713896    -0.22800
C1255       C  0.74360050  0.20397558  0.29182448    -0.22800
C1256       C  0.79806770  0.29246274  0.12512424    -0.18200
C1257       C  0.79976166  0.27550408  0.26131074    -0.18200
C1258       C  0.70267475  0.19203222  0.24630677    -0.18200
C1259       C  0.70497337  0.20399538  0.11006405    -0.18200
H1260       H  0.83505064  0.34785435  0.17046737     0.14700
H1261       H  0.83801112  0.33845449  0.24272592     0.14700
H1262       H  0.64816851  0.18334934  0.13980366     0.14700
H1263       H  0.64714013  0.17864403  0.21516445     0.14700
H1264       H  0.78720227  0.26560309  0.04748075     0.13000
H1265       H  0.73569554  0.21642378  0.03908739     0.13000
H1266       H  0.78536852  0.23229752  0.32076426     0.13000
H1267       H  0.73360240  0.18509445  0.31051366     0.13000
H1268       H  0.77974282  0.25269214  0.18609480     0.26300
H1269       H  0.73301357  0.20976339  0.17939262     0.26300
C1270       C  0.56120691  0.08278471  0.49366715     0.03300
C1271       C  0.54280821  0.09075816  0.01538589    -0.12900
C1272       C  0.55404373  0.11747629  0.04009373     0.00800
C1273       C  0.58395423  0.13532848  0.04395946    -0.11400
C1274       C  0.60277303  0.12663459  0.02482294     0.03300
C1275       C  0.59129247  0.10043975  0.99878267    -0.10800
H1276       H  0.51974506  0.07648861  0.51222472     0.08900
H1277       H  0.59281681  0.15608659  0.06301614     0.06400
H1278       H  0.60554022  0.09427453  0.48216925     0.06200
C1279       C  0.56006281  0.44221531  0.49471231     0.03300
C1280       C  0.54812592  0.41060961  0.00238159    -0.12900
C1281       C  0.56219099  0.40026479  0.02719576     0.00800
C1282       C  0.58935123  0.42143687  0.04207395    -0.11400
C1283       C  0.60326370  0.45196697  0.03118300     0.03300
C1284       C  0.58834903  0.46276399  0.00815768    -0.10800
H1285       H  0.52722040  0.39416465  0.49043424     0.08900
H1286       H  0.60026121  0.41390693  0.06191389     0.06400
H1287       H  0.59844793  0.48682944  0.50140020     0.06200
C1288       C  0.94232401  0.04052026  0.37748539     0.03300
C1289       C  0.91301775  0.02086576  0.36838526    -0.12900
C1290       C  0.89745490  0.03089361  0.34534034     0.00800
C1291       C  0.91174668  0.06087846  0.33186563    -0.11400
C1292       C  0.94009573  0.08169438  0.34320390     0.03300
C1293       C  0.95497586  0.07146968  0.36685131    -0.10800
H1294       H  0.90260283  0.99787918  0.37883430     0.08900
H1295       H  0.90056323  0.06822657  0.31225711     0.06400
H1296       H  0.97695850  0.08738474  0.37553768     0.06200
N1297       N  0.51233457  0.28595977  0.18167327    -0.36500
N1298       N  0.99502240  0.24412679  0.24308151    -0.57000
N1299       N  0.49447864  0.19750779  0.18792728    -0.36500
N1300       N  0.51201531  0.23933587  0.12675577    -0.57000
C1301       C  0.01548727  0.30563612  0.21232263     0.27100
C1302       C  0.52506339  0.30354299  0.15182406     0.27100
C1303       C  0.98057126  0.17975290  0.21711813     0.27100
C1304       C  0.49099585  0.17795910  0.15703687     0.27100
C1305       C  0.99392777  0.26812188  0.26277943     0.35700
C1306       C  0.98720284  0.22110487  0.26722114     0.35700
C1307       C  0.51964315  0.26214860  0.10242355     0.35700
C1308       C  0.51366237  0.21558770  0.10733306     0.35700
C1309       C  0.03071530  0.33591978  0.20205192    -0.21800
C1310       C  0.53686117  0.33463255  0.16398148    -0.21800
C1311       C  0.96762037  0.14874730  0.20419897    -0.21800
C1312       C  0.47441376  0.14764729  0.16638735    -0.21800
C1313       C  0.98526970  0.26026457  0.29986866    -0.22800
C1314       C  0.98232602  0.23105284  0.30317519    -0.22800
C1315       C  0.52507658  0.25236289  0.06670787    -0.22800
C1316       C  0.52265579  0.22345828  0.07035615    -0.22800
C1317       C  0.00175404  0.29723863  0.24783983    -0.18200
C1318       C  0.52482253  0.29263750  0.11321497    -0.18200
C1319       C  0.50534712  0.18639315  0.12206944    -0.18200
C1320       C  0.98106995  0.19030319  0.25591128    -0.18200
H1321       H  0.03607356  0.35676783  0.21996185     0.14700
H1322       H  0.54818460  0.35442224  0.14694575     0.14700
H1323       H  0.95518826  0.12884862  0.22062095     0.14700
H1324       H  0.46848994  0.12689233  0.14802892     0.14700
H1325       H  0.98185127  0.27412180  0.32252504     0.13000
H1326       H  0.97564819  0.21804835  0.32858926     0.13000
H1327       H  0.53165116  0.26525176  0.04119449     0.13000
H1328       H  0.52638575  0.20970617  0.04787232     0.13000
H1329       H  0.49854477  0.26231325  0.17982622     0.26300
H1330       H  0.50915775  0.22092071  0.19041296     0.26300
N1331       N  0.70639329  0.47396236  0.19054366    -0.36500
N1332       N  0.74145757  0.96773293  0.25044937    -0.57000
N1333       N  0.78467916  0.48009000  0.19176164    -0.36500
N1334       N  0.74827274  0.48434923  0.13302099    -0.57000
C1335       C  0.68830733  0.96390941  0.22013682     0.27100
C1336       C  0.69028947  0.46928045  0.15835456     0.27100
C1337       C  0.79573055  0.47148302  0.22090873     0.27100
C1338       C  0.79744464  0.47699587  0.15905353     0.27100
C1339       C  0.72292472  0.97322726  0.27269631     0.35700
C1340       C  0.76429204  0.97361616  0.27335982     0.35700
C1341       C  0.73080900  0.49253981  0.11412505     0.35700
C1342       C  0.77336243  0.49559438  0.11441530     0.35700
C1343       C  0.66023093  0.45213932  0.20674923    -0.21800
C1344       C  0.66138207  0.45475339  0.16756612    -0.21800
C1345       C  0.81587952  0.46305375  0.20643740    -0.21800
C1346       C  0.81604649  0.46524244  0.16747684    -0.21800
C1347       C  0.73328297  0.98109542  0.31015298    -0.22800
C1348       C  0.75906492  0.98038021  0.31085946    -0.22800
C1349       C  0.74500025  0.50945844  0.08324703    -0.22800
C1350       C  0.77207567  0.51140438  0.08344245    -0.22800
C1351       C  0.69713359  0.97191111  0.25909031    -0.18200
C1352       C  0.70139397  0.48174814  0.12250564    -0.18200
C1353       C  0.79567525  0.48834143  0.12304305    -0.18200
C1354       C  0.79044156  0.97478770  0.26042377    -0.18200
H1355       H  0.64108751  0.94396244  0.22376713     0.14700
H1356       H  0.64309024  0.44859278  0.14856842     0.14700
H1357       H  0.82982673  0.45669395  0.22179820     0.14700
H1358       H  0.82969149  0.46034093  0.14800313     0.14700
H1359       H  0.72345056  0.98694855  0.33438801     0.13000
H1360       H  0.77296767  0.98575530  0.33589190     0.13000
H1361       H  0.73641591  0.51851545  0.06217309     0.13000
H1362       H  0.78852242  0.52221407  0.06253323     0.13000
H1363       H  0.72841649  0.48827343  0.19367305     0.26300
H1364       H  0.77260271  0.49184948  0.19515311     0.26300
O1365       O  0.98684701  0.04796112  0.40326350    -0.80800
O1366       O  0.55110423  0.48117170  0.46755202    -0.65400
O1367       O  0.50589726  0.00314850  0.40243045    -1.12000
C1368       C  0.93243232  0.45182319  0.49212299     1.06100
O1369       O  0.51534773  0.43375851  0.46837481    -0.78700
O1370       O  0.96369187  0.41529751  0.43655340    -0.66200
Ni1371     Ni  0.52013852  0.04419667  0.38671482     1.34900
C1372       C  0.95464021  0.42223857  0.40707534     0.84900
O1373       O  0.56234134  0.00982379  0.40092503    -0.79200
O1374       O  0.55468062  0.04413170  0.36904832    -0.89500
C1375       C  0.54146087  0.45319142  0.47588151     0.84400
O1376       O  0.53887304  0.06597206  0.43341417    -0.67700
O1377       O  0.94670389  0.43760905  0.49996217    -0.87000
C1378       C  0.54841738  0.05882550  0.46226948     0.85300
C1379       C  0.56980948  0.03091211  0.37695111     1.06800
H1380       H  0.00083196  0.49184168  0.48932546     0.38600
O1381       O  0.99641799  0.47828932  0.46631816    -1.09600
O1382       O  0.95639723  0.44880025  0.40313101    -0.66300
Ni1383     Ni  0.97266672  0.48773792  0.43401154     1.26300
O1384       O  0.54637079  0.03216443  0.46570711    -0.66500
O1385       O  0.94026472  0.47231046  0.46744754    -0.78800
C1386       C  0.96084373  0.02882582  0.39497518     0.84700
O1387       O  0.95137896  0.00040368  0.40109595    -0.66000
Ni1388     Ni  0.98168082  0.43749183  0.48331787     1.27400
Ni1389     Ni  0.52973873  0.49361718  0.43449824     1.26100
H1390       H  0.50156852  0.48992257  0.37924999     0.39200
C1391       C  0.82655607  0.01569829  0.30608022    -0.01700
C1392       C  0.81518083  0.98557656  0.28843128     0.08000
C1393       C  0.82811660  0.96696782  0.29735870    -0.01800
C1394       C  0.85558210  0.98091504  0.31577749    -0.01800
C1395       C  0.86651460  0.01116314  0.33352700     0.08100
C1396       C  0.84872987  0.02548271  0.33342838    -0.02000
Br1397     Br  0.85275807  0.05629044  0.37286328    -0.00600
Br1398     Br  0.81459065  0.04533836  0.29075851    -0.00600
Br1399     Br  0.87825718  0.95937807  0.31268853    -0.00600
Br1400     Br  0.80829596  0.42287682  0.28528228    -0.00600
C1401       C  0.98026985  0.12418691  0.30789318    -0.01700
C1402       C  0.95407903  0.11323687  0.32772604     0.08000
C1403       C  0.93937699  0.13120502  0.32862023    -0.01800
C1404       C  0.94697701  0.15528372  0.30389449    -0.01800
C1405       C  0.97338705  0.16668980  0.28512062     0.08100
C1406       C  0.99098486  0.15234830  0.28985166    -0.02000
Br1407     Br  0.52923821  0.17051323  0.26968094    -0.00600
Br1408     Br  0.50021330  0.09970016  0.30084730    -0.00600
Br1409     Br  0.91942077  0.16960044  0.29264294    -0.00600
Br1410     Br  0.91077724  0.12539487  0.36609828    -0.00600
C1411       C  0.66470145  0.49789992  0.10061159    -0.01700
C1412       C  0.68107994  0.48209729  0.09264147     0.08000
C1413       C  0.67576948  0.46403899  0.05763377    -0.01800
C1414       C  0.65336284  0.46040441  0.03271457    -0.01800
C1415       C  0.63358440  0.47081168  0.04476826     0.08100
C1416       C  0.64018249  0.49108654  0.07769850    -0.02000
Br1417     Br  0.61409425  0.50690204  0.09333366    -0.00600
Br1418     Br  0.67460943  0.52724359  0.14426537    -0.00600
Br1419     Br  0.64772774  0.43858421  0.98314170    -0.00600
Br1420     Br  0.69581938  0.44028182  0.04567323    -0.00600
C1421       C  0.52162330  0.35497982  0.05767436    -0.01700
C1422       C  0.54876048  0.36803269  0.04007325     0.08000
C1423       C  0.56543224  0.35222718  0.04073830    -0.01800
C1424       C  0.55834540  0.32810803  0.06523392    -0.01800
C1425       C  0.53159253  0.31545980  0.08330509     0.08100
C1426       C  0.51237191  0.32748645  0.07677300    -0.02000
Br1427     Br  0.97392869  0.30724866  0.09634772    -0.00600
Br1428     Br  0.99817066  0.37584672  0.06032557    -0.00600
Br1429     Br  0.58689217  0.31533502  0.07717259    -0.00600
Br1430     Br  0.59790331  0.36318977  0.00788605    -0.00600
C1431       C  0.54255129  0.13695483  0.10175588    -0.01700
C1432       C  0.53558828  0.12785723  0.06255388     0.08000
C1433       C  0.51439099  0.13338954  0.04475234    -0.01800
C1434       C  0.50217858  0.14979722  0.06556355    -0.01800
C1435       C  0.51369608  0.16407762  0.10203051     0.08100
C1436       C  0.53358946  0.15699775  0.12033349    -0.02000
Br1437     Br  0.55079906  0.17655894  0.16970063    -0.00600
Br1438     Br  0.56460760  0.12206488  0.13022816    -0.00600
Br1439     Br  0.96984619  0.15281446  0.04428377    -0.00600
Br1440     Br  0.50332226  0.12114718  0.49142764    -0.00600
C1441       C  0.67409228  0.15239931  0.07609901    -0.01700
C1442       C  0.68404310  0.18464342  0.07872289     0.08000
C1443       C  0.67137075  0.19745487  0.05496435    -0.01800
C1444       C  0.64710488  0.17783762  0.03179812    -0.01800
C1445       C  0.63403379  0.14540165  0.03455281     0.08100
C1446       C  0.64848338  0.13268363  0.05539195    -0.02000
Br1447     Br  0.63170673  0.08862312  0.05984048    -0.00600
Br1448     Br  0.69532562  0.13546215  0.10203892    -0.00600
Br1449     Br  0.63029726  0.19535900  0.99826241    -0.00600
Br1450     Br  0.68551927  0.24162407  0.05669233    -0.00600
C1451       C  0.64577838  0.11292545  0.27545760    -0.01700
C1452       C  0.64948968  0.11673345  0.31546973     0.08000
C1453       C  0.66468960  0.14676193  0.33282523    -0.01800
C1454       C  0.67816705  0.17214461  0.30948492    -0.01800
C1455       C  0.68116910  0.16680645  0.26965363     0.08100
C1456       C  0.66440876  0.13645537  0.25279061    -0.02000
Br1457     Br  0.66922425  0.12443324  0.20074157    -0.00600
Br1458     Br  0.61417623  0.07600973  0.25207895    -0.00600
Br1459     Br  0.69197632  0.21367886  0.33198450    -0.00600
Br1460     Br  0.66705757  0.15286528  0.38786811    -0.00600
C1461       C  0.68862008  0.01733224  0.26960225    -0.01700
C1462       C  0.68375251  0.98858115  0.28176638     0.08000
C1463       C  0.66570703  0.97639969  0.31312789    -0.01800
C1464       C  0.65261231  0.99315037  0.33173286    -0.01800
C1465       C  0.65425855  0.02005743  0.31564275     0.08100
C1466       C  0.67138588  0.03050031  0.28254479    -0.02000
Br1467     Br  0.66931652  0.05931819  0.24916082    -0.00600
Br1468     Br  0.72031958  0.04000966  0.23633861    -0.00600
Br1469     Br  0.63451772  0.97973301  0.38016090    -0.00600
Br1470     Br  0.65976032  0.93741691  0.33105394    -0.00600
C1471       C  0.84725844  0.50800201  0.10300402    -0.01700
C1472       C  0.81752226  0.49090466  0.09346039     0.08000
C1473       C  0.80914366  0.47168708  0.05913511    -0.01800
C1474       C  0.82990070  0.46745584  0.03763492    -0.01800
C1475       C  0.85765722  0.47774341  0.05334099     0.08100
C1476       C  0.86694583  0.49973289  0.08474398    -0.02000
Br1477     Br  0.90535671  0.51535889  0.10554936    -0.00600
Br1478     Br  0.86026487  0.03970925  0.14435693    -0.00600
Br1479     Br  0.82012471  0.44511489  0.98814893    -0.00600
Br1480     Br  0.76925347  0.44689966  0.04411379    -0.00400
C1481       C  0.80213032  0.33242616  0.07977539    -0.01700
C1482       C  0.81542715  0.31806253  0.09972764     0.08000
C1483       C  0.84559351  0.33016310  0.09853578    -0.01800
C1484       C  0.86258322  0.35882116  0.08259609    -0.01800
C1485       C  0.84927450  0.37367296  0.06335422     0.08100
C1486       C  0.81889150  0.35876382  0.05960752    -0.02000
Br1487     Br  0.79965185  0.37342390  0.02586852    -0.00600
Br1488     Br  0.76110370  0.31795952  0.08232445    -0.00600
Br1489     Br  0.90374528  0.37851125  0.09098177    -0.00600
Br1490     Br  0.86361199  0.30780760  0.12000710    -0.00600
C1491       C  0.86371208  0.29807171  0.32910849    -0.01700
C1492       C  0.87125461  0.32955927  0.33828522     0.08000
C1493       C  0.85029964  0.33938391  0.33155840    -0.01800
C1494       C  0.82433113  0.31903184  0.31182459    -0.01800
C1495       C  0.82125192  0.29113423  0.29355551     0.08100
C1496       C  0.84072580  0.28022113  0.30329999    -0.02000
Br1497     Br  0.83850413  0.24302142  0.27800518    -0.00600
Br1498     Br  0.88592583  0.27995130  0.35009538    -0.00600
Br1499     Br  0.79417005  0.33059529  0.30591864    -0.00600
Br1500     Br  0.85750347  0.38116975  0.34458028    -0.00600
C1501       C  0.97281764  0.32588143  0.24844677    -0.01700
C1502       C  0.99275111  0.31927334  0.26751938     0.08000
C1503       C  0.00427876  0.33454602  0.30361693    -0.01800
C1504       C  0.99218170  0.35169800  0.32316325    -0.01800
C1505       C  0.97151923  0.35746346  0.30416882     0.08100
C1506       C  0.96473047  0.34728718  0.26519895    -0.02000
Br1507     Br  0.94376679  0.36226229  0.23475822    -0.00600
Br1508     Br  0.95418272  0.30366536  0.20074929    -0.00600
Br1509     Br  0.00251976  0.36450538  0.37655973    -0.00600
Br1510     Br  0.03655451  0.33213161  0.32608944    -0.00600
C1511       C  0.94279167  0.39815392  0.87558129     0.03300
C1512       C  0.96211277  0.39315567  0.85178867    -0.12900
C1513       C  0.95214242  0.36717770  0.82584766     0.00800
C1514       C  0.92244747  0.34803840  0.82170299    -0.11400
C1515       C  0.90253913  0.35216545  0.84506623     0.03300
C1516       C  0.91314061  0.37708820  0.87307830    -0.10800
H1517       H  0.98495351  0.40879929  0.85467871     0.08900
H1518       H  0.91470117  0.32877063  0.80042039     0.06400
H1519       H  0.89873607  0.37977587  0.89342358     0.06200
C1520       C  0.90546132  0.44363480  0.01323716     0.03300
C1521       C  0.88988265  0.41341449  0.02577186    -0.12900
C1522       C  0.86633336  0.40560039  0.54986271     0.00800
C1523       C  0.85829043  0.42841472  0.56083630    -0.11400
C1524       C  0.87148584  0.45760708  0.54559095     0.03300
C1525       C  0.89543763  0.46546481  0.02205177    -0.10800
H1526       H  0.89614581  0.39591104  0.01669995     0.08900
H1527       H  0.84046687  0.42289541  0.58002094     0.06400
H1528       H  0.90625923  0.48832081  0.01116602     0.06200
C1529       C  0.59848001  0.04328940  0.85919337     0.03300
C1530       C  0.61168455  0.02476324  0.84769923    -0.12900
C1531       C  0.64005186  0.03850278  0.83328983     0.00800
C1532       C  0.65450956  0.07102044  0.83220516    -0.11400
C1533       C  0.63971392  0.08844983  0.83691906     0.03300
C1534       C  0.61233151  0.07488049  0.85193928    -0.10800
H1535       H  0.59931475  0.99993051  0.84840091     0.08900
H1536       H  0.67655767  0.08260365  0.82301823     0.06400
H1537       H  0.60141482  0.08885914  0.85647144     0.06200
N1538       N  0.79234214  0.27638972  0.69179539    -0.36500
N1539       N  0.75211172  0.24619735  0.62778077    -0.57000
N1540       N  0.71176303  0.20587081  0.67965582    -0.36500
N1541       N  0.75113038  0.23533911  0.74404096    -0.57000
C1542       C  0.80322513  0.29802388  0.66541532     0.27100
C1543       C  0.80457143  0.29040203  0.72626839     0.27100
C1544       C  0.69511973  0.20126662  0.64815299     0.27100
C1545       C  0.69424558  0.19707880  0.71003345     0.27100
C1546       C  0.77572941  0.26461132  0.60871388     0.35700
C1547       C  0.73363056  0.22475518  0.60178058     0.35700
C1548       C  0.77505378  0.24709520  0.76671230     0.35700
C1549       C  0.73169488  0.20916476  0.75946319     0.35700
C1550       C  0.82251519  0.32611413  0.68343583    -0.21800
C1551       C  0.82398948  0.32112897  0.72143498    -0.21800
C1552       C  0.66667710  0.19010258  0.65863258    -0.21800
C1553       C  0.66617822  0.18794231  0.69791113    -0.21800
C1554       C  0.77238246  0.25479499  0.57016874    -0.22800
C1555       C  0.74566019  0.22923378  0.56581514    -0.22800
C1556       C  0.77068917  0.22857622  0.79713998    -0.22800
C1557       C  0.74359952  0.20397705  0.79182536    -0.22800
C1558       C  0.79806736  0.29246238  0.62512441    -0.18200
C1559       C  0.79976011  0.27550584  0.76131160    -0.18200
C1560       C  0.70267350  0.19203337  0.74630790    -0.18200
C1561       C  0.70497288  0.20399536  0.61006486    -0.18200
H1562       H  0.83504864  0.34785503  0.67046692     0.14700
H1563       H  0.83800863  0.33845642  0.74272597     0.14700
H1564       H  0.64816801  0.18335049  0.63980387     0.14700
H1565       H  0.64713918  0.17864578  0.71516476     0.14700
H1566       H  0.78720221  0.26560166  0.54748119     0.13000
H1567       H  0.73569523  0.21642256  0.53908846     0.13000
H1568       H  0.78536736  0.23229944  0.82076532     0.13000
H1569       H  0.73360171  0.18509587  0.81051444     0.13000
H1570       H  0.77974228  0.25269276  0.68609593     0.26300
H1571       H  0.73301270  0.20976376  0.67939394     0.26300
C1572       C  0.56120709  0.08278422  0.99366841     0.03300
C1573       C  0.54280797  0.09075949  0.51538338    -0.12900
C1574       C  0.55404353  0.11747734  0.54009179     0.00800
C1575       C  0.58395400  0.13532897  0.54395841    -0.11400
C1576       C  0.60277280  0.12663470  0.52482259     0.03300
C1577       C  0.59129230  0.10043971  0.49878247    -0.10800
H1578       H  0.51974533  0.07648653  0.01222830     0.08900
H1579       H  0.59281653  0.15608687  0.56301547     0.06400
H1580       H  0.60554032  0.09427506  0.98216856     0.06200
C1581       C  0.56006330  0.44221524  0.99471160     0.03300
C1582       C  0.54812543  0.41060991  0.50238373    -0.12900
C1583       C  0.56219088  0.40026577  0.52719838     0.00800
C1584       C  0.58935104  0.42143842  0.54207618    -0.11400
C1585       C  0.60326322  0.45196812  0.53118395     0.03300
C1586       C  0.58834850  0.46276438  0.50815780    -0.10800
H1587       H  0.52722090  0.39416462  0.99043171     0.08900
H1588       H  0.60026130  0.41390917  0.56191657     0.06400
H1589       H  0.59844845  0.48682931  0.00140120     0.06200
C1590       C  0.94232347  0.04052079  0.87748720     0.03300
C1591       C  0.91301713  0.02086658  0.86838676    -0.12900
C1592       C  0.89745460  0.03089457  0.84534123     0.00800
C1593       C  0.91174686  0.06087945  0.83186681    -0.11400
C1594       C  0.94009580  0.08169512  0.84320572     0.03300
C1595       C  0.95497552  0.07147022  0.86685339    -0.10800
H1596       H  0.90260203  0.99788009  0.87883590     0.08900
H1597       H  0.90056395  0.06822781  0.81225782     0.06400
H1598       H  0.97695809  0.08738514  0.87554010     0.06200
N1599       N  0.51233722  0.28596122  0.68167707    -0.36500
N1600       N  0.99502334  0.24412743  0.74308409    -0.57000
N1601       N  0.49447924  0.19750833  0.68792907    -0.36500
N1602       N  0.51201799  0.23933732  0.62675887    -0.57000
C1603       C  0.01548925  0.30563734  0.71232645     0.27100
C1604       C  0.52506616  0.30354463  0.65182808     0.27100
C1605       C  0.98057115  0.17975335  0.71711955     0.27100
C1606       C  0.49099644  0.17795979  0.65703845     0.27100
C1607       C  0.99392902  0.26812252  0.76278248     0.35700
C1608       C  0.98720326  0.22110516  0.76722326     0.35700
C1609       C  0.51964691  0.26215063  0.60242729     0.35700
C1610       C  0.51366479  0.21558909  0.60733586     0.35700
C1611       C  0.03071693  0.33592110  0.70205598    -0.21800
C1612       C  0.53686327  0.33463413  0.66398567    -0.21800
C1613       C  0.96761969  0.14874784  0.70419995    -0.21800
C1614       C  0.47441359  0.14764800  0.66638844    -0.21800
C1615       C  0.98527060  0.26026484  0.79987152    -0.22800
C1616       C  0.98232648  0.23105289  0.80317753    -0.22800
C1617       C  0.52508100  0.25236533  0.56671175    -0.22800
C1618       C  0.52265934  0.22346032  0.57035950    -0.22800
C1619       C  0.00175562  0.29723951  0.74784341    -0.18200
C1620       C  0.52482592  0.29263940  0.61321898    -0.18200
C1621       C  0.50534818  0.18639392  0.62207130    -0.18200
C1622       C  0.98106981  0.19030342  0.75591282    -0.18200
H1623       H  0.03607455  0.35676900  0.71996591     0.14700
H1624       H  0.54818653  0.35442395  0.64695011     0.14700
H1625       H  0.95518694  0.12884911  0.72062157     0.14700
H1626       H  0.46848950  0.12689312  0.64802980     0.14700
H1627       H  0.98185214  0.27412193  0.82252806     0.13000
H1628       H  0.97564836  0.21804812  0.82859139     0.13000
H1629       H  0.53165630  0.26525455  0.54119871     0.13000
H1630       H  0.52638943  0.20970837  0.54787559     0.13000
H1631       H  0.49854772  0.26231461  0.67982965     0.26300
H1632       H  0.50915875  0.22092109  0.69041530     0.26300
N1633       N  0.70639315  0.47396272  0.69054261    -0.36500
N1634       N  0.74145738  0.96773290  0.75044810    -0.57000
N1635       N  0.78467796  0.48008777  0.69175947    -0.36500
N1636       N  0.74827151  0.48434772  0.63301926    -0.57000
C1637       C  0.68830738  0.96390991  0.72013601     0.27100
C1638       C  0.69028906  0.46928049  0.65835371     0.27100
C1639       C  0.79572976  0.47148133  0.72090666     0.27100
C1640       C  0.79744310  0.47699320  0.65905122     0.27100
C1641       C  0.72292515  0.97322835  0.77269508     0.35700
C1642       C  0.76429204  0.97361595  0.77335814     0.35700
C1643       C  0.73080820  0.49253911  0.61412371     0.35700
C1644       C  0.77336089  0.49559180  0.61441297     0.35700
C1645       C  0.66023085  0.45213950  0.70674878    -0.21800
C1646       C  0.66138171  0.45475324  0.66756560    -0.21800
C1647       C  0.81587869  0.46305202  0.70643524    -0.21800
C1648       C  0.81604515  0.46524004  0.66747454    -0.21800
C1649       C  0.73328398  0.98109710  0.81015146    -0.22800
C1650       C  0.75906565  0.98038113  0.81085770    -0.22800
C1651       C  0.74499948  0.50945725  0.58324537    -0.22800
C1652       C  0.77207435  0.51140181  0.58344005    -0.22800
C1653       C  0.69713397  0.97191237  0.75908928    -0.18200
C1654       C  0.70139335  0.48174824  0.62250476    -0.18200
C1655       C  0.79567336  0.48833829  0.62304054    -0.18200
C1656       C  0.79044124  0.97478663  0.76042168    -0.18200
H1657       H  0.64108753  0.94396263  0.72376693     0.14700
H1658       H  0.64308974  0.44859237  0.64856804     0.14700
H1659       H  0.82982627  0.45669277  0.72179612     0.14700
H1660       H  0.82969005  0.46033843  0.64800072     0.14700
H1661       H  0.72345213  0.98695111  0.83438642     0.13000
H1662       H  0.77296873  0.98575650  0.83588987     0.13000
H1663       H  0.73641547  0.51851469  0.56217155     0.13000
H1664       H  0.78852095  0.52221081  0.56253047     0.13000
H1665       H  0.72841638  0.48827408  0.69367172     0.26300
H1666       H  0.77260158  0.49184729  0.69515084     0.26300
O1667       O  0.98684666  0.04796145  0.90326469    -0.80800
O1668       O  0.55110426  0.48117180  0.96755242    -0.65400
O1669       O  0.50589693  0.00314877  0.90243145    -1.12000
C1670       C  0.93243252  0.45182422  0.99212484     1.06100
O1671       O  0.51534765  0.43375872  0.96837628    -0.78700
O1672       O  0.96369181  0.41529812  0.93655472    -0.66200
Ni1673     Ni  0.52013829  0.04419708  0.88671618     1.34900
C1674       C  0.95463973  0.42223903  0.90707692     0.84900
O1675       O  0.56234095  0.00982369  0.90092523    -0.79200
O1676       O  0.55468062  0.04413243  0.86904984    -0.89500
C1677       C  0.54146102  0.45319157  0.97588198     0.84400
O1678       O  0.53887257  0.06597204  0.93341581    -0.67700
O1679       O  0.94670381  0.43760967  0.99996354    -0.87000
C1680       C  0.54841737  0.05882537  0.96227057     0.85300
C1681       C  0.56980937  0.03091256  0.87695204     1.06800
H1682       H  0.00083212  0.49184211  0.98932661     0.38600
O1683       O  0.99641797  0.47828972  0.96631938    -1.09600
O1684       O  0.95639654  0.44880064  0.90313275    -0.66300
Ni1685     Ni  0.97266655  0.48773845  0.93401303     1.26300
O1686       O  0.54637108  0.03216440  0.96570762    -0.66500
O1687       O  0.94026496  0.47231154  0.96744952    -0.78800
C1688       C  0.96084327  0.02882620  0.89497673     0.84700
O1689       O  0.95137853  0.00040409  0.90109761    -0.66000
Ni1690     Ni  0.98168072  0.43749231  0.98331926     1.27400
Ni1691     Ni  0.52973852  0.49361722  0.93449894     1.26100
H1692       H  0.50156791  0.48992279  0.87925107     0.39200
C1693       C  0.82655645  0.01569862  0.80607581    -0.01700
C1694       C  0.81518111  0.98557638  0.78842853     0.08000
C1695       C  0.82811710  0.96696806  0.79735725    -0.01800
C1696       C  0.85558222  0.98091569  0.81577737    -0.01800
C1697       C  0.86651445  0.01116409  0.83352605     0.08100
C1698       C  0.84872985  0.02548381  0.83342476    -0.02000
Br1699     Br  0.85275707  0.05629254  0.87285765    -0.00600
Br1700     Br  0.81459111  0.04533810  0.79075123    -0.00600
Br1701     Br  0.87825715  0.95937855  0.81269196    -0.00600
Br1702     Br  0.80829743  0.42287707  0.78528128    -0.00600
C1703       C  0.98027004  0.12418748  0.80789503    -0.01700
C1704       C  0.95407939  0.11323765  0.82772819     0.08000
C1705       C  0.93937751  0.13120593  0.82862278    -0.01800
C1706       C  0.94697714  0.15528425  0.80389656    -0.01800
C1707       C  0.97338687  0.16668993  0.78512195     0.08100
C1708       C  0.99098481  0.15234859  0.78985297    -0.02000
Br1709     Br  0.52923809  0.17051358  0.76968197    -0.00600
Br1710     Br  0.50021385  0.09970108  0.80085023    -0.00600
Br1711     Br  0.91942085  0.16960109  0.79264569    -0.00600
Br1712     Br  0.91077873  0.12539637  0.86610213    -0.00600
C1713       C  0.66470049  0.49790018  0.60061235    -0.01700
C1714       C  0.68107932  0.48209803  0.59264108     0.08000
C1715       C  0.67576914  0.46404072  0.55763254    -0.01800
C1716       C  0.65336251  0.46040659  0.53271369    -0.01800
C1717       C  0.63358390  0.47081327  0.54476840     0.08100
C1718       C  0.64018169  0.49108730  0.57769932    -0.02000
Br1719     Br  0.61409301  0.50690199  0.59333547    -0.00600
Br1720     Br  0.67460734  0.52724221  0.64426770    -0.00600
Br1721     Br  0.64772724  0.43858726  0.48314015    -0.00600
Br1722     Br  0.69581892  0.44028362  0.54567047    -0.00600
C1723       C  0.52162416  0.35498009  0.55767753    -0.01700
C1724       C  0.54876129  0.36803379  0.54007633     0.08000
C1725       C  0.56543405  0.35222941  0.54074188    -0.01800
C1726       C  0.55834808  0.32811064  0.56523786    -0.01800
C1727       C  0.53159527  0.31546161  0.58330911     0.08100
C1728       C  0.51237378  0.32748710  0.57677674    -0.02000
Br1729     Br  0.97393078  0.30724822  0.59635161    -0.00600
Br1730     Br  0.99817013  0.37584535  0.56032772    -0.00600
Br1731     Br  0.58689587  0.31533921  0.57717677    -0.00600
Br1732     Br  0.59790542  0.36319306  0.50788987    -0.00600
C1733       C  0.54255023  0.13695367  0.60175497    -0.01700
C1734       C  0.53558817  0.12785816  0.56255238     0.08000
C1735       C  0.51439201  0.13339236  0.54475109    -0.01800
C1736       C  0.50217944  0.14979936  0.56556347    -0.01800
C1737       C  0.51369615  0.16407782  0.60203148     0.08100
C1738       C  0.53358854  0.15699621  0.62033399    -0.02000
Br1739     Br  0.55079737  0.17655480  0.66970232    -0.00600
Br1740     Br  0.56460550  0.12206181  0.63022601    -0.00600
Br1741     Br  0.96984782  0.15281828  0.54428386    -0.00600
Br1742     Br  0.50331884  0.12114035  0.99143009    -0.00600
C1743       C  0.67409154  0.15239915  0.57610028    -0.01700
C1744       C  0.68404261  0.18464329  0.57872373     0.08000
C1745       C  0.67137058  0.19745474  0.55496468    -0.01800
C1746       C  0.64710491  0.17783752  0.53179810    -0.01800
C1747       C  0.63403348  0.14540157  0.53455319     0.08100
C1748       C  0.64848260  0.13268351  0.55539324    -0.02000
Br1749     Br  0.63170499  0.08862312  0.55984346    -0.00600
Br1750     Br  0.69532474  0.13546202  0.60204053    -0.00600
Br1751     Br  0.63029812  0.19535900  0.49826121    -0.00600
Br1752     Br  0.68551936  0.24162396  0.55669218    -0.00600
C1753       C  0.64577666  0.11292684  0.77545910    -0.01700
C1754       C  0.64948903  0.11673444  0.81547106     0.08000
C1755       C  0.66468987  0.14676273  0.83282679    -0.01800
C1756       C  0.67816663  0.17214557  0.80948660    -0.01800
C1757       C  0.68116781  0.16680766  0.76965495     0.08100
C1758       C  0.66440683  0.13645668  0.75279191    -0.02000
Br1759     Br  0.66922153  0.12443412  0.70074278    -0.00600
Br1760     Br  0.61417370  0.07601156  0.75208106    -0.00600
Br1761     Br  0.69197599  0.21367960  0.83198691    -0.00600
Br1762     Br  0.66706046  0.15286566  0.88786970    -0.00600
C1763       C  0.68861852  0.01733256  0.76959936    -0.01700
C1764       C  0.68375266  0.98858242  0.78176512     0.08000
C1765       C  0.66570797  0.97640147  0.81312752    -0.01800
C1766       C  0.65261299  0.99315199  0.83173226    -0.01800
C1767       C  0.65425758  0.02005778  0.81564081     0.08100
C1768       C  0.67138355  0.03049979  0.78254166    -0.02000
Br1769     Br  0.66931123  0.05931538  0.74915662    -0.00600
Br1770     Br  0.72031684  0.04001003  0.73633418    -0.00600
Br1771     Br  0.63452049  0.97973654  0.88016190    -0.00600
Br1772     Br  0.65976239  0.93741955  0.83105496    -0.00600
C1773       C  0.84725623  0.50799886  0.60300026    -0.01700
C1774       C  0.81751996  0.49090097  0.59345757     0.08000
C1775       C  0.80914097  0.47168276  0.55913283    -0.01800
C1776       C  0.82989793  0.46745189  0.53763193    -0.01800
C1777       C  0.85765487  0.47774030  0.55333705     0.08100
C1778       C  0.86694362  0.49973001  0.58473979    -0.02000
Br1779     Br  0.90535471  0.51535649  0.60554461    -0.00600
Br1780     Br  0.86026280  0.03970674  0.64435240    -0.00600
Br1781     Br  0.82012138  0.44511053  0.48814624    -0.00600
Br1782     Br  0.76925052  0.44689428  0.54411336    -0.00400
C1783       C  0.80213032  0.33242461  0.57977359    -0.01700
C1784       C  0.81542712  0.31806179  0.59972750     0.08000
C1785       C  0.84559363  0.33016300  0.59853709    -0.01800
C1786       C  0.86258328  0.35882070  0.58259649    -0.01800
C1787       C  0.84927447  0.37367133  0.56335242     0.08100
C1788       C  0.81889154  0.35876162  0.55960476    -0.02000
Br1789     Br  0.79965196  0.37342030  0.52586370    -0.00600
Br1790     Br  0.76110374  0.31795836  0.58232251    -0.00600
Br1791     Br  0.90374521  0.37851212  0.59098390    -0.00600
Br1792     Br  0.86361239  0.30780912  0.62001203    -0.00600
C1793       C  0.86371066  0.29807287  0.82910885    -0.01700
C1794       C  0.87125389  0.32956067  0.83828524     0.08000
C1795       C  0.85029943  0.33938595  0.83155795    -0.01800
C1796       C  0.82433064  0.31903410  0.81182459    -0.01800
C1797       C  0.82125073  0.29113607  0.79355595     0.08100
C1798       C  0.84072427  0.28022252  0.80330043    -0.02000
Br1799     Br  0.83850206  0.24302252  0.77800564    -0.00600
Br1800     Br  0.88592321  0.27995147  0.85009669    -0.00600
Br1801     Br  0.79417010  0.33059838  0.80591877    -0.00600
Br1802     Br  0.85750431  0.38117228  0.84457844    -0.00600
C1803       C  0.97281877  0.32588177  0.74845010    -0.01700
C1804       C  0.99275219  0.31927382  0.76752303     0.08000
C1805       C  0.00427899  0.33454591  0.80362118    -0.01800
C1806       C  0.99218134  0.35169740  0.82316739    -0.01800
C1807       C  0.97151896  0.35746275  0.80417249     0.08100
C1808       C  0.96473083  0.34728684  0.76520242    -0.02000
Br1809     Br  0.94376754  0.36226210  0.73476119    -0.00600
Br1810     Br  0.95418492  0.30366632  0.70075180    -0.00600
Br1811     Br  0.00251881  0.36450472  0.87656406    -0.00600
Br1812     Br  0.03655453  0.33213154  0.82609445    -0.00600
C1813       C  0.94279053  0.89815379  0.37556514     0.03300
C1814       C  0.96210450  0.89314819  0.35176518    -0.12900
C1815       C  0.95212730  0.86715927  0.32583923     0.00800
C1816       C  0.92243131  0.84801673  0.32171623    -0.11400
C1817       C  0.90252975  0.85215992  0.34507582     0.03300
C1818       C  0.91313921  0.87709067  0.37307566    -0.10800
H1819       H  0.98494534  0.90879433  0.35463984     0.08900
H1820       H  0.91467861  0.82873800  0.30044922     0.06400
H1821       H  0.89873961  0.87978673  0.39342232     0.06200
C1822       C  0.90546393  0.94362684  0.51324639     0.03300
C1823       C  0.88988674  0.91341085  0.52579650    -0.12900
C1824       C  0.86633645  0.90560668  0.04988824     0.00800
C1825       C  0.85829695  0.92842486  0.06085388    -0.11400
C1826       C  0.87149631  0.95761509  0.04560355     0.03300
C1827       C  0.89544213  0.96545992  0.52205381    -0.10800
H1828       H  0.89615053  0.89590522  0.51673821     0.08900
H1829       H  0.84047322  0.92291019  0.08003705     0.06400
H1830       H  0.90626356  0.98831302  0.51115998     0.06200
C1831       C  0.59848931  0.54328628  0.35920622     0.03300
C1832       C  0.61169357  0.52476150  0.34770412    -0.12900
C1833       C  0.64006057  0.53850286  0.33329288     0.00800
C1834       C  0.65451623  0.57102083  0.33220907    -0.11400
C1835       C  0.63971990  0.58844936  0.33693217     0.03300
C1836       C  0.61234029  0.57487855  0.35195924    -0.10800
H1837       H  0.59932347  0.49992850  0.34840081     0.08900
H1838       H  0.67656337  0.58260583  0.32301911     0.06400
H1839       H  0.60142348  0.58885652  0.35649807     0.06200
N1840       N  0.79231820  0.77640767  0.19182462    -0.36500
N1841       N  0.75210226  0.74619991  0.12779909    -0.57000
N1842       N  0.71175232  0.70586905  0.17966886    -0.36500
N1843       N  0.75110797  0.73535493  0.24406598    -0.57000
C1844       C  0.80320096  0.79803984  0.16544218     0.27100
C1845       C  0.80454436  0.79042340  0.22629766     0.27100
C1846       C  0.69511201  0.70125505  0.14815917     0.27100
C1847       C  0.69423043  0.69707420  0.21004213     0.27100
C1848       C  0.77572072  0.76461878  0.10873730     0.35700
C1849       C  0.73362920  0.72475275  0.10179664     0.35700
C1850       C  0.77502736  0.74711946  0.26674607     0.35700
C1851       C  0.73167375  0.70918099  0.25949000     0.35700
C1852       C  0.82248617  0.82613283  0.18346152    -0.21800
C1853       C  0.82395962  0.82115092  0.22146177    -0.21800
C1854       C  0.66666650  0.69008066  0.15863003    -0.21800
C1855       C  0.66616261  0.68792386  0.19790940    -0.21800
C1856       C  0.77238293  0.75480006  0.07019347    -0.22800
C1857       C  0.74566526  0.72923264  0.06583515    -0.22800
C1858       C  0.77066011  0.72860756  0.29718222    -0.22800
C1859       C  0.74357442  0.70400322  0.29186343    -0.22800
C1860       C  0.79805134  0.79247391  0.12515026    -0.18200
C1861       C  0.79973388  0.77552924  0.26134250    -0.18200
C1862       C  0.70265629  0.69203893  0.24632420    -0.18200
C1863       C  0.70497157  0.70398798  0.11007338    -0.18200
H1864       H  0.83501879  0.84787314  0.17049090     0.14700
H1865       H  0.83797731  0.83848121  0.24275092     0.14700
H1866       H  0.64815901  0.68332022  0.13979531     0.14700
H1867       H  0.64712089  0.67862204  0.21515772     0.14700
H1868       H  0.78720550  0.76560881  0.04750947     0.13000
H1869       H  0.73570716  0.71641798  0.03910748     0.13000
H1870       H  0.78533421  0.73233829  0.32081565     0.13000
H1871       H  0.73357663  0.68512474  0.31055637     0.13000
H1872       H  0.77972318  0.75270978  0.18612688     0.26300
H1873       H  0.73300501  0.70977202  0.17941620     0.26300
C1874       C  0.56121179  0.58278966  0.49366113     0.03300
C1875       C  0.54281415  0.59076788  0.01537483    -0.12900
C1876       C  0.55405139  0.61748589  0.04008263     0.00800
C1877       C  0.58396168  0.63533402  0.04395245    -0.11400
C1878       C  0.60277906  0.62663678  0.02481866     0.03300
C1879       C  0.59129738  0.60044138  0.99877930    -0.10800
H1880       H  0.51975059  0.57650255  0.51220992     0.08900
H1881       H  0.59282502  0.65609205  0.06300930     0.06400
H1882       H  0.60554438  0.59427320  0.48216867     0.06200
C1883       C  0.56007381  0.94222549  0.49470576     0.03300
C1884       C  0.54813995  0.91062171  0.00238214    -0.12900
C1885       C  0.56220840  0.90028211  0.02719774     0.00800
C1886       C  0.58936935  0.92145683  0.04207049    -0.11400
C1887       C  0.60327921  0.95198550  0.03117398     0.03300
C1888       C  0.58836091  0.96277784  0.00814695    -0.10800
H1889       H  0.52723356  0.89417380  0.49043986     0.08900
H1890       H  0.60028185  0.91392981  0.06191032     0.06400
H1891       H  0.59845766  0.98684200  0.50138428     0.06200
C1892       C  0.94232907  0.54051803  0.37747060     0.03300
C1893       C  0.91302140  0.52086295  0.36837842    -0.12900
C1894       C  0.89745649  0.53088679  0.34533112     0.00800
C1895       C  0.91174723  0.56086864  0.33184862    -0.11400
C1896       C  0.94009652  0.58168576  0.34318144     0.03300
C1897       C  0.95498013  0.57146497  0.36682802    -0.10800
H1898       H  0.90260735  0.49787925  0.37883557     0.08900
H1899       H  0.90056273  0.56821386  0.31223799     0.06400
H1900       H  0.97696443  0.58738068  0.37550648     0.06200
N1901       N  0.51234979  0.78596387  0.18167497    -0.36500
N1902       N  0.99502530  0.74411878  0.24307114    -0.57000
N1903       N  0.49447557  0.69750557  0.18790609    -0.36500
N1904       N  0.51202617  0.73934605  0.12674682    -0.57000
C1905       C  0.01549610  0.80563451  0.21232793     0.27100
C1906       C  0.52508325  0.80355258  0.15183169     0.27100
C1907       C  0.98056766  0.67974690  0.21709344     0.27100
C1908       C  0.49099024  0.67796078  0.15701087     0.27100
C1909       C  0.99392631  0.76811008  0.26277169     0.35700
C1910       C  0.98719937  0.72109236  0.26720468     0.35700
C1911       C  0.51965797  0.76216306  0.10242018     0.35700
C1912       C  0.51366639  0.71559658  0.10731724     0.35700
C1913       C  0.03072480  0.83592051  0.20206615    -0.21800
C1914       C  0.53687873  0.83464041  0.16399741    -0.21800
C1915       C  0.96761363  0.64874281  0.20416766    -0.21800
C1916       C  0.47440526  0.64764756  0.16635458    -0.21800
C1917       C  0.98525953  0.76024634  0.29985647    -0.22800
C1918       C  0.98231413  0.73103356  0.30315806    -0.22800
C1919       C  0.52508597  0.75237849  0.06670051    -0.22800
C1920       C  0.52265934  0.72347052  0.07034105    -0.22800
C1921       C  0.00175519  0.79722905  0.24783888    -0.18200
C1922       C  0.52484418  0.79265322  0.11321972    -0.18200
C1923       C  0.50534596  0.68639878  0.12204747    -0.18200
C1924       C  0.98106729  0.69029255  0.25588823    -0.18200
H1925       H  0.03607798  0.85676524  0.21998052     0.14700
H1926       H  0.54820376  0.85443344  0.14696739     0.14700
H1927       H  0.95518070  0.62884207  0.22058602     0.14700
H1928       H  0.46847998  0.62689472  0.14799128     0.14700
H1929       H  0.98183652  0.77410036  0.32251280     0.13000
H1930       H  0.97562927  0.71802395  0.32856749     0.13000
H1931       H  0.53166048  0.76526971  0.04118904     0.13000
H1932       H  0.52638509  0.70971885  0.04785243     0.13000
H1933       H  0.49855920  0.76231763  0.17982119     0.26300
H1934       H  0.50915794  0.72091724  0.19039699     0.26300
N1935       N  0.70639714  0.97397194  0.19053628    -0.36500
N1936       N  0.74146137  0.46772803  0.25044843    -0.57000
N1937       N  0.78468315  0.98009681  0.19177230    -0.36500
N1938       N  0.74828460  0.98435927  0.13302241    -0.57000
C1939       C  0.68830750  0.46389893  0.22014763     0.27100
C1940       C  0.69029762  0.96929210  0.15834294     0.27100
C1941       C  0.79573049  0.97148803  0.22092212     0.27100
C1942       C  0.79745274  0.97700420  0.15906736     0.27100
C1943       C  0.72293198  0.47322521  0.27269895     0.35700
C1944       C  0.76429895  0.47361409  0.27335358     0.35700
C1945       C  0.73082283  0.99254904  0.11412000     0.35700
C1946       C  0.77337753  0.99560647  0.11442383     0.35700
C1947       C  0.66023272  0.95215372  0.20673201    -0.21800
C1948       C  0.66138902  0.95476845  0.16754892    -0.21800
C1949       C  0.81588083  0.96305894  0.20645486    -0.21800
C1950       C  0.81605233  0.96524913  0.16749461    -0.21800
C1951       C  0.73329551  0.48109818  0.31015295    -0.22800
C1952       C  0.75907758  0.48038317  0.31085402    -0.22800
C1953       C  0.74501861  0.00946930  0.08324525    -0.22800
C1954       C  0.77209481  0.01141729  0.08344950    -0.22800
C1955       C  0.69713893  0.47190660  0.25909803    -0.18200
C1956       C  0.70140676  0.98175837  0.12249423    -0.18200
C1957       C  0.79568907  0.98835255  0.12305688    -0.18200
C1958       C  0.79044607  0.47478365  0.26041145    -0.18200
H1959       H  0.64108787  0.44394695  0.22378877     0.14700
H1960       H  0.64309975  0.94860981  0.14854713     0.14700
H1961       H  0.82982737  0.95669942  0.22181724     0.14700
H1962       H  0.82969979  0.96034877  0.14802419     0.14700
H1963       H  0.72346626  0.48695389  0.33438962     0.13000
H1964       H  0.77298391  0.48576130  0.33588325     0.13000
H1965       H  0.73643718  0.01852687  0.06216823     0.13000
H1966       H  0.78854478  0.02222853  0.06254467     0.13000
H1967       H  0.72842051  0.98828026  0.19366999     0.26300
H1968       H  0.77260697  0.99185673  0.19516065     0.26300
O1969       O  0.98685387  0.54796228  0.40324664    -0.80800
O1970       O  0.55110666  0.98117443  0.46754042    -0.65400
O1971       O  0.50590300  0.50314868  0.40243108    -1.12000
C1972       C  0.93243107  0.95181139  0.49212346     1.06100
O1973       O  0.51535508  0.93375848  0.46836698    -0.78700
O1974       O  0.96370347  0.91529765  0.43653175    -0.66200
Ni1975     Ni  0.52014627  0.54419477  0.38670901     1.34900
C1976       C  0.95464426  0.92223900  0.40706080     0.84900
O1977       O  0.56234643  0.50981950  0.40093459    -0.79200
O1978       O  0.55468884  0.54412682  0.36905200    -0.89500
C1979       C  0.54146747  0.95319543  0.47587258     0.84400
O1980       O  0.53887749  0.56597228  0.43340899    -0.67700
O1981       O  0.94669990  0.93759088  0.49994791    -0.87000
C1982       C  0.54842179  0.55882796  0.46226643     0.85300
C1983       C  0.56981695  0.53090757  0.37695987     1.06800
H1984       H  0.00083083  0.99183310  0.48932425     0.38600
O1985       O  0.99641681  0.97828355  0.46631425    -1.09600
O1986       O  0.95639122  0.94879787  0.40312820    -0.66300
Ni1987     Ni  0.97266283  0.98773400  0.43401430     1.26300
O1988       O  0.54637517  0.53216725  0.46570847    -0.66500
O1989       O  0.94026424  0.97230444  0.46745549    -0.78800
C1990       C  0.96085022  0.52882601  0.39496117     0.84700
O1991       O  0.95138553  0.50040471  0.40108574    -0.66000
Ni1992     Ni  0.98168246  0.93748327  0.48330475     1.27400
Ni1993     Ni  0.52973610  0.99361709  0.43449173     1.26100
H1994       H  0.50156215  0.98992412  0.37924784     0.39200
C1995       C  0.82656536  0.51569692  0.30605689    -0.01700
C1996       C  0.81518784  0.48557351  0.28841386     0.08000
C1997       C  0.82811856  0.46696173  0.29734979    -0.01800
C1998       C  0.85558087  0.48090564  0.31577765    -0.01800
C1999       C  0.86651558  0.51115608  0.33352086     0.08100
C2000       C  0.84873443  0.52547956  0.33341117    -0.02000
Br2001     Br  0.85275833  0.55628783  0.37284222    -0.00600
Br2002     Br  0.81460545  0.54533858  0.29072368    -0.00600
Br2003     Br  0.87824650  0.45935746  0.31271758    -0.00600
Br2004     Br  0.80829706  0.92288261  0.28529111    -0.00600
C2005       C  0.98026455  0.62417229  0.30785963    -0.01700
C2006       C  0.95407643  0.61322507  0.32769762     0.08000
C2007       C  0.93937293  0.63119172  0.32858968    -0.01800
C2008       C  0.94697067  0.65526686  0.30385999    -0.01800
C2009       C  0.97338269  0.66667607  0.28509193     0.08100
C2010       C  0.99098105  0.65233556  0.28982322    -0.02000
Br2011     Br  0.52923733  0.67050541  0.26966354    -0.00600
Br2012     Br  0.50019710  0.59967599  0.30079246    -0.00600
Br2013     Br  0.91940936  0.66957321  0.29259334    -0.00600
Br2014     Br  0.91077381  0.62538495  0.36606684    -0.00600
C2015       C  0.66472163  0.99791905  0.10059601    -0.01700
C2016       C  0.68109674  0.98211265  0.09262653     0.08000
C2017       C  0.67578523  0.96405564  0.05761725    -0.01800
C2018       C  0.65337904  0.96042410  0.03269836    -0.01800
C2019       C  0.63360152  0.97083220  0.04475413     0.08100
C2020       C  0.64020204  0.99110714  0.07768479    -0.02000
Br2021     Br  0.61411540  0.00692325  0.09332467    -0.00600
Br2022     Br  0.67463581  0.02726634  0.14424685    -0.00600
Br2023     Br  0.64774092  0.93860466  0.98312432    -0.00600
Br2024     Br  0.69583293  0.94029687  0.04565350    -0.00600
C2025       C  0.52164666  0.85500386  0.05769204    -0.01700
C2026       C  0.54878011  0.86805239  0.04008188     0.08000
C2027       C  0.56544984  0.85224443  0.04073971    -0.01800
C2028       C  0.55836365  0.82812332  0.06523268    -0.01800
C2029       C  0.53161470  0.81548014  0.08331485     0.08100
C2030       C  0.51239653  0.82751202  0.07679323    -0.02000
Br2031     Br  0.97395744  0.80728222  0.09638208    -0.00600
Br2032     Br  0.99819683  0.87587401  0.06034732    -0.00600
Br2033     Br  0.58690550  0.81533747  0.07714766    -0.00600
Br2034     Br  0.59791590  0.86320569  0.00787802    -0.00600
C2035       C  0.54255316  0.63696271  0.10174186    -0.01700
C2036       C  0.53559711  0.62787068  0.06253735     0.08000
C2037       C  0.51440633  0.63340921  0.04472860    -0.01800
C2038       C  0.50218849  0.64981171  0.06553800    -0.01800
C2039       C  0.51369774  0.66408531  0.10201010     0.08100
C2040       C  0.53358639  0.65700141  0.12031927    -0.02000
Br2041     Br  0.55078153  0.67654928  0.16969733    -0.00600
Br2042     Br  0.56460953  0.62207445  0.13021761    -0.00600
Br2043     Br  0.96985828  0.65282874  0.04425002    -0.00600
Br2044     Br  0.50335887  0.62118798  0.49139504    -0.00600
C2045       C  0.67409624  0.65239531  0.07609653    -0.01700
C2046       C  0.68404681  0.68463924  0.07872496     0.08000
C2047       C  0.67137799  0.69745306  0.05496386    -0.01800
C2048       C  0.64711233  0.67783772  0.03179630    -0.01800
C2049       C  0.63403953  0.64540156  0.03454992     0.08100
C2050       C  0.64848734  0.63268136  0.05538862    -0.02000
Br2051     Br  0.63170684  0.58862073  0.05983924    -0.00600
Br2052     Br  0.69533140  0.63545651  0.10202840    -0.00600
Br2053     Br  0.63030540  0.69536215  0.99826358    -0.00600
Br2054     Br  0.68553260  0.74162306  0.05668588    -0.00600
C2055       C  0.64578505  0.61292070  0.27546892    -0.01700
C2056       C  0.64948685  0.61673178  0.31548161     0.08000
C2057       C  0.66466114  0.64676348  0.33283685    -0.01800
C2058       C  0.67813608  0.67214635  0.30949541    -0.01800
C2059       C  0.68115356  0.66680890  0.26966789     0.08100
C2060       C  0.66441151  0.63645461  0.25280517    -0.02000
Br2061     Br  0.66924837  0.62443626  0.20076349    -0.00600
Br2062     Br  0.61418906  0.57600207  0.25208674    -0.00600
Br2063     Br  0.69192307  0.71367943  0.33198794    -0.00600
Br2064     Br  0.66698784  0.65287129  0.38787949    -0.00600
C2065       C  0.68862926  0.51733073  0.26960456    -0.01700
C2066       C  0.68376168  0.48858069  0.28177259     0.08000
C2067       C  0.66571723  0.47640142  0.31313477    -0.01800
C2068       C  0.65262182  0.49315220  0.33173688    -0.01800
C2069       C  0.65426813  0.52005879  0.31564499     0.08100
C2070       C  0.67139646  0.53050087  0.28254724    -0.02000
Br2071     Br  0.66932913  0.55931853  0.24916190    -0.00600
Br2072     Br  0.72032434  0.54000125  0.23633073    -0.00600
Br2073     Br  0.63452553  0.47973445  0.38016369    -0.00600
Br2074     Br  0.65977347  0.43742079  0.33106497    -0.00600
C2075       C  0.84727414  0.00800800  0.10302016    -0.01700
C2076       C  0.81753732  0.99091271  0.09347693     0.08000
C2077       C  0.80915751  0.97169705  0.05915008    -0.01800
C2078       C  0.82991359  0.96746804  0.03764484    -0.01800
C2079       C  0.85767082  0.97775431  0.05334699     0.08100
C2080       C  0.86696158  0.99974340  0.08475043    -0.02000
Br2081     Br  0.90537984  0.01538189  0.10553490    -0.00600
Br2082     Br  0.86024681  0.53971137  0.14433092    -0.00600
Br2083     Br  0.82013595  0.94513270  0.98815554    -0.00600
Br2084     Br  0.76926650  0.94690602  0.04413483    -0.00400
C2085       C  0.80212380  0.83243252  0.07978720    -0.01700
C2086       C  0.81541611  0.81807112  0.09975345     0.08000
C2087       C  0.84558336  0.83017486  0.09858052    -0.01800
C2088       C  0.86257649  0.85883390  0.08264561    -0.01800
C2089       C  0.84927261  0.87368037  0.06338315     0.08100
C2090       C  0.81889028  0.85876997  0.05962124    -0.02000
Br2091     Br  0.79965945  0.87343170  0.02586984    -0.00600
Br2092     Br  0.76109605  0.81796371  0.08231612    -0.00600
Br2093     Br  0.90373452  0.87853809  0.09107339    -0.00600
Br2094     Br  0.86359799  0.80782388  0.12007456    -0.00600
C2095       C  0.86368167  0.79807457  0.32913736    -0.01700
C2096       C  0.87124121  0.82956771  0.33830088     0.08000
C2097       C  0.85029850  0.83940833  0.33156725    -0.01800
C2098       C  0.82432296  0.81906197  0.31184543    -0.01800
C2099       C  0.82122892  0.79115650  0.29358273     0.08100
C2100       C  0.84069188  0.78022963  0.30333171    -0.02000
Br2101     Br  0.83845052  0.74301654  0.27804995    -0.00600
Br2102     Br  0.88587397  0.77993708  0.35014303    -0.00600
Br2103     Br  0.79417202  0.83064202  0.30594961    -0.00600
Br2104     Br  0.85753001  0.88120774  0.34455596    -0.00600
C2105       C  0.97279654  0.82584497  0.24844507    -0.01700
C2106       C  0.99274188  0.81925498  0.26751609     0.08000
C2107       C  0.00427076  0.83453508  0.30360922    -0.01800
C2108       C  0.99217553  0.85169196  0.32314852    -0.01800
C2109       C  0.97149814  0.85743735  0.30415891     0.08100
C2110       C  0.96469530  0.84724025  0.26519527    -0.02000
Br2111     Br  0.94369819  0.86217629  0.23475481    -0.00600
Br2112     Br  0.95416893  0.80361817  0.20074875    -0.00600
Br2113     Br  0.00254398  0.86454109  0.37653015    -0.00600
Br2114     Br  0.03654248  0.83211635  0.32608880    -0.00600
C2115       C  0.94279004  0.89815412  0.87556683     0.03300
C2116       C  0.96210407  0.89314774  0.85176792    -0.12900
C2117       C  0.95212687  0.86715869  0.82584222     0.00800
C2118       C  0.92243081  0.84801666  0.82171841    -0.11400
C2119       C  0.90252910  0.85216067  0.84507682     0.03300
C2120       C  0.91313856  0.87709164  0.87307644    -0.10800
H2121       H  0.98494496  0.90879353  0.85464309     0.08900
H2122       H  0.91467815  0.82873784  0.80045152     0.06400
H2123       H  0.89873883  0.87978832  0.89342230     0.06200
C2124       C  0.90546450  0.94362839  0.01324879     0.03300
C2125       C  0.88988665  0.91341225  0.02579804    -0.12900
C2126       C  0.86633617  0.90560493  0.54988606     0.00800
C2127       C  0.85829580  0.92842257  0.56085054    -0.11400
C2128       C  0.87149453  0.95761253  0.54559959     0.03300
C2129       C  0.89544364  0.96546209  0.02205741    -0.10800
H2130       H  0.89614966  0.89590623  0.01673857     0.08900
H2131       H  0.84047188  0.92290763  0.58003341     0.06400
H2132       H  0.90626552  0.98831533  0.01116405     0.06200
C2133       C  0.59848930  0.54328680  0.85920725     0.03300
C2134       C  0.61169332  0.52476199  0.84770394    -0.12900
C2135       C  0.64005995  0.53850330  0.83329146     0.00800
C2136       C  0.65451556  0.57102120  0.83220724    -0.11400
C2137       C  0.63971967  0.58845002  0.83693278     0.03300
C2138       C  0.61234048  0.57487930  0.85196127    -0.10800
H2139       H  0.59932338  0.49992897  0.84840077     0.08900
H2140       H  0.67656223  0.58260597  0.82301539     0.06400
H2141       H  0.60142397  0.58885746  0.85650160     0.06200
N2142       N  0.79231704  0.77640845  0.69182534    -0.36500
N2143       N  0.75210187  0.74619972  0.62779961    -0.57000
N2144       N  0.71175147  0.70586963  0.67966975    -0.36500
N2145       N  0.75110655  0.73535639  0.74406709    -0.57000
C2146       C  0.80319984  0.79804025  0.66544248     0.27100
C2147       C  0.80454270  0.79042477  0.72629835     0.27100
C2148       C  0.69511137  0.70125561  0.64815983     0.27100
C2149       C  0.69422946  0.69707521  0.71004294     0.27100
C2150       C  0.77572046  0.76461827  0.60873782     0.35700
C2151       C  0.73362884  0.72475233  0.60179736     0.35700
C2152       C  0.77502595  0.74712116  0.76674719     0.35700
C2153       C  0.73167254  0.70918229  0.75949105     0.35700
C2154       C  0.82248436  0.82613365  0.68346158    -0.21800
C2155       C  0.82395755  0.82115236  0.72146209    -0.21800
C2156       C  0.66666588  0.69008174  0.65863046    -0.21800
C2157       C  0.66616181  0.68792524  0.69790990    -0.21800
C2158       C  0.77238282  0.75479906  0.57019414    -0.22800
C2159       C  0.74566506  0.72923172  0.56583595    -0.22800
C2160       C  0.77065892  0.72860931  0.79718333    -0.22800
C2161       C  0.74357343  0.70400466  0.79186436    -0.22800
C2162       C  0.79805098  0.79247361  0.62515052    -0.18200
C2163       C  0.79973234  0.77553100  0.76134342    -0.18200
C2164       C  0.70265508  0.69204005  0.74632527    -0.18200
C2165       C  0.70497108  0.70398795  0.61007413    -0.18200
H2166       H  0.83501677  0.84787385  0.67049063     0.14700
H2167       H  0.83797482  0.83848311  0.74275109     0.14700
H2168       H  0.64815851  0.68332141  0.63979560     0.14700
H2169       H  0.64712002  0.67862382  0.71515805     0.14700
H2170       H  0.78720549  0.76560751  0.54751012     0.13000
H2171       H  0.73570700  0.71641681  0.53910838     0.13000
H2172       H  0.78533304  0.73234023  0.82081683     0.13000
H2173       H  0.73357588  0.68512607  0.81055718     0.13000
H2174       H  0.77972245  0.75271044  0.68612799     0.26300
H2175       H  0.73300408  0.70977234  0.67941733     0.26300
C2176       C  0.56121195  0.58278914  0.99366237     0.03300
C2177       C  0.54281393  0.59076923  0.51537236    -0.12900
C2178       C  0.55405126  0.61748699  0.54008071     0.00800
C2179       C  0.58396152  0.63533456  0.54395140    -0.11400
C2180       C  0.60277888  0.62663692  0.52481831     0.03300
C2181       C  0.59129724  0.60044135  0.49877912    -0.10800
H2182       H  0.51975087  0.57650047  0.01221343     0.08900
H2183       H  0.59282484  0.65609238  0.56300862     0.06400
H2184       H  0.60554447  0.59427373  0.98216798     0.06200
C2185       C  0.56007437  0.94222551  0.99470508     0.03300
C2186       C  0.54813940  0.91062193  0.50238427    -0.12900
C2187       C  0.56220826  0.90028303  0.52720033     0.00800
C2188       C  0.58936914  0.92145832  0.54207266    -0.11400
C2189       C  0.60327870  0.95198659  0.53117485     0.03300
C2190       C  0.58836034  0.96277815  0.50814698    -0.10800
H2191       H  0.52723416  0.89417387  0.99043734     0.08900
H2192       H  0.60028199  0.91393201  0.56191290     0.06400
H2193       H  0.59845825  0.98684194  0.00138540     0.06200
C2194       C  0.94232854  0.54051852  0.87747243     0.03300
C2195       C  0.91302077  0.52086368  0.86838002    -0.12900
C2196       C  0.89745619  0.53088769  0.84533207     0.00800
C2197       C  0.91174739  0.56086962  0.83184985    -0.11400
C2198       C  0.94009657  0.58168654  0.84318336     0.03300
C2199       C  0.95497984  0.57146552  0.86683009    -0.10800
H2200       H  0.90260651  0.49788005  0.87883739     0.08900
H2201       H  0.90056339  0.56821513  0.81223876     0.06400
H2202       H  0.97696412  0.58738112  0.87550885     0.06200
N2203       N  0.51235243  0.78596535  0.68167877    -0.36500
N2204       N  0.99502608  0.74411938  0.74307369    -0.57000
N2205       N  0.49447627  0.69750613  0.68790803    -0.36500
N2206       N  0.51202886  0.73934755  0.62675000    -0.57000
C2207       C  0.01549806  0.80563575  0.71233173     0.27100
C2208       C  0.52508603  0.80355427  0.65183573     0.27100
C2209       C  0.98056759  0.67974734  0.71709492     0.27100
C2210       C  0.49099088  0.67796151  0.65701257     0.27100
C2211       C  0.99392752  0.76811072  0.76277475     0.35700
C2212       C  0.98719968  0.72109262  0.76720678     0.35700
C2213       C  0.51966173  0.76216513  0.60242396     0.35700
C2214       C  0.51366885  0.71559802  0.60732014     0.35700
C2215       C  0.03072637  0.83592181  0.70207015    -0.21800
C2216       C  0.53688079  0.83464199  0.66400163    -0.21800
C2217       C  0.96761303  0.64874334  0.70416870    -0.21800
C2218       C  0.47440509  0.64764831  0.66635577    -0.21800
C2219       C  0.98526048  0.76024661  0.79985936    -0.22800
C2220       C  0.98231451  0.73103356  0.80316036    -0.22800
C2221       C  0.52509041  0.75238098  0.56670444    -0.22800
C2222       C  0.52266295  0.72347263  0.57034450    -0.22800
C2223       C  0.00175680  0.79722994  0.74784247    -0.18200
C2224       C  0.52484759  0.79265516  0.61322377    -0.18200
C2225       C  0.50534705  0.68639959  0.62204941    -0.18200
C2226       C  0.98106711  0.69029277  0.75588979    -0.18200
H2227       H  0.03607898  0.85676641  0.71998450     0.14700
H2228       H  0.54820569  0.85443517  0.64697184     0.14700
H2229       H  0.95517948  0.62884252  0.72058669     0.14700
H2230       H  0.46847955  0.62689560  0.64799219     0.14700
H2231       H  0.98183763  0.77410051  0.82251599     0.13000
H2232       H  0.97562931  0.71802366  0.82856955     0.13000
H2233       H  0.53166564  0.76527255  0.54119331     0.13000
H2234       H  0.52638884  0.70972113  0.54785584     0.13000
H2235       H  0.49856217  0.76231907  0.67982463     0.26300
H2236       H  0.50915907  0.72091761  0.69039954     0.26300
N2237       N  0.70639694  0.97397225  0.69053520    -0.36500
N2238       N  0.74146116  0.46772788  0.75044718    -0.57000
N2239       N  0.78468190  0.98009462  0.69177007    -0.36500
N2240       N  0.74828330  0.98435770  0.63302054    -0.57000
C2241       C  0.68830757  0.46389945  0.72014682     0.27100
C2242       C  0.69029717  0.96929213  0.65834206     0.27100
C2243       C  0.79572962  0.97148631  0.72091994     0.27100
C2244       C  0.79745113  0.97700157  0.65906498     0.27100
C2245       C  0.72293239  0.47322623  0.77269769     0.35700
C2246       C  0.76429895  0.47361385  0.77335195     0.35700
C2247       C  0.73082197  0.99254831  0.61411855     0.35700
C2248       C  0.77337595  0.99560387  0.61442136     0.35700
C2249       C  0.66023264  0.95215386  0.70673157    -0.21800
C2250       C  0.66138867  0.95476833  0.66754844    -0.21800
C2251       C  0.81587988  0.96305712  0.70645254    -0.21800
C2252       C  0.81605092  0.96524673  0.66749220    -0.21800
C2253       C  0.73329650  0.48109987  0.81015137    -0.22800
C2254       C  0.75907828  0.48038411  0.81085227    -0.22800
C2255       C  0.74501782  0.00946814  0.58324351    -0.22800
C2256       C  0.77209349  0.01141476  0.58344697    -0.22800
C2257       C  0.69713933  0.47190784  0.75909699    -0.18200
C2258       C  0.70140608  0.98175848  0.62249332    -0.18200
C2259       C  0.79568711  0.98834936  0.62305424    -0.18200
C2260       C  0.79044579  0.47478264  0.76040946    -0.18200
H2261       H  0.64108793  0.44394722  0.72378863     0.14700
H2262       H  0.64309927  0.94860952  0.64854686     0.14700
H2263       H  0.82982670  0.95669799  0.72181489     0.14700
H2264       H  0.82969821  0.96034619  0.64802166     0.14700
H2265       H  0.72346784  0.48695654  0.83438792     0.13000
H2266       H  0.77298493  0.48576259  0.83588125     0.13000
H2267       H  0.73643672  0.01852617  0.56216668     0.13000
H2268       H  0.78854334  0.02222533  0.56254178     0.13000
H2269       H  0.72842031  0.98828083  0.69366857     0.26300
H2270       H  0.77260566  0.99185451  0.69515837     0.26300
O2271       O  0.98685351  0.54796263  0.90324787    -0.80800
O2272       O  0.55110683  0.98117459  0.96754060    -0.65400
O2273       O  0.50590263  0.50314887  0.90243210    -1.12000
C2274       C  0.93243134  0.95181246  0.99212541     1.06100
O2275       O  0.51535507  0.93375881  0.96836850    -0.78700
O2276       O  0.96370341  0.91529822  0.93653317    -0.66200
Ni2277     Ni  0.52014602  0.54419508  0.88671036     1.34900
C2278       C  0.95464381  0.92223942  0.90706245     0.84900
O2279       O  0.56234608  0.50981936  0.90093497    -0.79200
O2280       O  0.55468880  0.54412736  0.86905352    -0.89500
C2281       C  0.54146770  0.95319567  0.97587303     0.84400
O2282       O  0.53887697  0.56597219  0.93341063    -0.67700
O2283       O  0.94669990  0.93759157  0.99994937    -0.87000
C2284       C  0.54842171  0.55882777  0.96226755     0.85300
C2285       C  0.56981683  0.53090790  0.87696087     1.06800
H2286       H  0.00083106  0.99183357  0.98932527     0.38600
O2287       O  0.99641685  0.97828402  0.96631541    -1.09600
O2288       O  0.95639060  0.94879823  0.90312997    -0.66300
Ni2289     Ni  0.97266272  0.98773455  0.93401576     1.26300
O2290       O  0.54637530  0.53216714  0.96570909    -0.66500
O2291       O  0.94026453  0.97230556  0.96745753    -0.78800
C2292       C  0.96084975  0.52882640  0.89496279     0.84700
O2293       O  0.95138509  0.50040515  0.90108749    -0.66000
Ni2294     Ni  0.98168244  0.93748382  0.98330615     1.27400
Ni2295     Ni  0.52973594  0.99361718  0.93449233     1.26100
H2296       H  0.50156158  0.98992439  0.87924873     0.39200
C2297       C  0.82656573  0.51569726  0.80605272    -0.01700
C2298       C  0.81518815  0.48557337  0.78841129     0.08000
C2299       C  0.82811909  0.46696202  0.79734860    -0.01800
C2300       C  0.85558102  0.48090632  0.81577777    -0.01800
C2301       C  0.86651546  0.51115705  0.83352008     0.08100
C2302       C  0.84873445  0.52548070  0.83340773    -0.02000
Br2303     Br  0.85275735  0.55628995  0.87283683    -0.00600
Br2304     Br  0.81460585  0.54533820  0.79071645    -0.00600
Br2305     Br  0.87824659  0.45935799  0.81272101    -0.00600
Br2306     Br  0.80829834  0.92288273  0.78528988    -0.00600
C2307       C  0.98026470  0.62417287  0.80786153    -0.01700
C2308       C  0.95407674  0.61322589  0.82769986     0.08000
C2309       C  0.93937340  0.63119264  0.82859225    -0.01800
C2310       C  0.94697074  0.65526739  0.80386209    -0.01800
C2311       C  0.97338247  0.66667621  0.78509328     0.08100
C2312       C  0.99098094  0.65233585  0.78982456    -0.02000
Br2313     Br  0.52923717  0.67050586  0.76966503    -0.00600
Br2314     Br  0.50019759  0.59967688  0.80079517    -0.00600
Br2315     Br  0.91940931  0.66957371  0.79259603    -0.00600
Br2316     Br  0.91077541  0.62538667  0.86607093    -0.00600
C2317       C  0.66472063  0.99791936  0.60059670    -0.01700
C2318       C  0.68109606  0.98211341  0.59262612     0.08000
C2319       C  0.67578479  0.96405736  0.55761606    -0.01800
C2320       C  0.65337863  0.96042625  0.53269749    -0.01800
C2321       C  0.63360097  0.97083377  0.54475420     0.08100
C2322       C  0.64020120  0.99110791  0.57768550    -0.02000
Br2323     Br  0.61411413  0.00692322  0.59332624    -0.00600
Br2324     Br  0.67463368  0.02726497  0.64424916    -0.00600
Br2325     Br  0.64774030  0.93860747  0.48312294    -0.00600
Br2326     Br  0.69583244  0.94029880  0.54565072    -0.00600
C2327       C  0.52164752  0.85500410  0.55769513    -0.01700
C2328       C  0.54878091  0.86805343  0.54008487     0.08000
C2329       C  0.56545165  0.85224660  0.54074322    -0.01800
C2330       C  0.55836642  0.82812598  0.56523669    -0.01800
C2331       C  0.53161752  0.81548203  0.58331895     0.08100
C2332       C  0.51239847  0.82751272  0.57679701    -0.02000
Br2333     Br  0.97395947  0.80728184  0.59638617    -0.00600
Br2334     Br  0.99819623  0.87587265  0.56034968    -0.00600
Br2335     Br  0.58690930  0.81534166  0.57715185    -0.00600
Br2336     Br  0.59791787  0.86320874  0.50788158    -0.00600
C2337       C  0.54255225  0.63696169  0.60174099    -0.01700
C2338       C  0.53559712  0.62787176  0.56253589     0.08000
C2339       C  0.51440740  0.63341209  0.54472742    -0.01800
C2340       C  0.50218932  0.64981385  0.56553800    -0.01800
C2341       C  0.51369780  0.66408550  0.60201116     0.08100
C2342       C  0.53358551  0.65699992  0.62031985    -0.02000
Br2343     Br  0.55077969  0.67654510  0.66969923    -0.00600
Br2344     Br  0.56460759  0.62207144  0.63021545    -0.00600
Br2345     Br  0.96986012  0.65283279  0.54425013    -0.00600
Br2346     Br  0.50335530  0.62118112  0.99139744    -0.00600
C2347       C  0.67409547  0.65239513  0.57609793    -0.01700
C2348       C  0.68404635  0.68463909  0.57872578     0.08000
C2349       C  0.67137787  0.69745294  0.55496416    -0.01800
C2350       C  0.64711241  0.67783763  0.53179622    -0.01800
C2351       C  0.63403926  0.64540148  0.53455030     0.08100
C2352       C  0.64848654  0.63268123  0.55539005    -0.02000
Br2353     Br  0.63170524  0.58862074  0.55984220    -0.00600
Br2354     Br  0.69533041  0.63545625  0.60203026    -0.00600
Br2355     Br  0.63030626  0.69536217  0.49826236    -0.00600
Br2356     Br  0.68553267  0.74162295  0.55668597    -0.00600
C2357       C  0.64578333  0.61292205  0.77547040    -0.01700
C2358       C  0.64948619  0.61673272  0.81548293     0.08000
C2359       C  0.66466138  0.64676423  0.83283836    -0.01800
C2360       C  0.67813565  0.67214727  0.80949704    -0.01800
C2361       C  0.68115229  0.66681007  0.76966916     0.08100
C2362       C  0.66440960  0.63645589  0.75280644    -0.02000
Br2363     Br  0.66924581  0.62443713  0.70076471    -0.00600
Br2364     Br  0.61418652  0.57600387  0.75208884    -0.00600
Br2365     Br  0.69192273  0.71368014  0.83199033    -0.00600
Br2366     Br  0.66699066  0.65287149  0.88788106    -0.00600
C2367       C  0.68862775  0.51733106  0.76960170    -0.01700
C2368       C  0.68376187  0.48858195  0.78177132     0.08000
C2369       C  0.66571824  0.47640317  0.81313442    -0.01800
C2370       C  0.65262263  0.49315381  0.83173638    -0.01800
C2371       C  0.65426731  0.52005918  0.81564319     0.08100
C2372       C  0.67139422  0.53050039  0.78254419    -0.02000
Br2373     Br  0.66932395  0.55931586  0.74915783    -0.00600
Br2374     Br  0.72032164  0.54000175  0.73632635    -0.00600
Br2375     Br  0.63452823  0.47973777  0.88016465    -0.00600
Br2376     Br  0.65977544  0.43742322  0.83106573    -0.00600
C2377       C  0.84727191  0.00800487  0.60301636    -0.01700
C2378       C  0.81753500  0.99090900  0.59347401     0.08000
C2379       C  0.80915482  0.97169271  0.55914769    -0.01800
C2380       C  0.82991085  0.96746405  0.53764182    -0.01800
C2381       C  0.85766852  0.97775124  0.55334302     0.08100
C2382       C  0.86695941  0.99974059  0.58474619    -0.02000
Br2383     Br  0.90537799  0.01537969  0.60552987    -0.00600
Br2384     Br  0.86024493  0.53970895  0.64432627    -0.00600
Br2385     Br  0.82013276  0.94512832  0.48815281    -0.00600
Br2386     Br  0.76926354  0.94690061  0.54413432    -0.00400
C2387       C  0.80212384  0.83243107  0.57978553    -0.01700
C2388       C  0.81541608  0.81807041  0.59975338     0.08000
C2389       C  0.84558348  0.83017474  0.59858197    -0.01800
C2390       C  0.86257657  0.85883345  0.58264624    -0.01800
C2391       C  0.84927265  0.87367881  0.56338152     0.08100
C2392       C  0.81889038  0.85876787  0.55961862    -0.02000
Br2393     Br  0.79965967  0.87342827  0.52586509    -0.00600
Br2394     Br  0.76109615  0.81796274  0.58231421    -0.00600
Br2395     Br  0.90373444  0.87853900  0.59107603    -0.00600
Br2396     Br  0.86359838  0.80782541  0.62007977    -0.00600
C2397       C  0.86368018  0.79807571  0.82913791    -0.01700
C2398       C  0.87124042  0.82956908  0.83830104     0.08000
C2399       C  0.85029822  0.83941035  0.83156690    -0.01800
C2400       C  0.82432236  0.81906420  0.81184558    -0.01800
C2401       C  0.82122766  0.79115832  0.79358330     0.08100
C2402       C  0.84069030  0.78023102  0.80333231    -0.02000
Br2403     Br  0.83844845  0.74301765  0.77805066    -0.00600
Br2404     Br  0.88587135  0.77993725  0.85014437    -0.00600
Br2405     Br  0.79417195  0.83064509  0.80594976    -0.00600
Br2406     Br  0.85753084  0.88121026  0.84455412    -0.00600
C2407       C  0.97279763  0.82584524  0.74844838    -0.01700
C2408       C  0.99274301  0.81925548  0.76751970     0.08000
C2409       C  0.00427111  0.83453511  0.80361333    -0.01800
C2410       C  0.99217520  0.85169138  0.82315247    -0.01800
C2411       C  0.97149781  0.85743657  0.80416248     0.08100
C2412       C  0.96469561  0.84723985  0.76519866    -0.02000
Br2413     Br  0.94369868  0.86217586  0.73475777    -0.00600
Br2414     Br  0.95417108  0.80361904  0.70075136    -0.00600
Br2415     Br  0.00254294  0.86454023  0.87653431    -0.00600
Br2416     Br  0.03654259  0.83211648  0.82609398    -0.00600
loop_ 
_geom_bond_atom_site_label_1 
_geom_bond_atom_site_label_2 
_geom_bond_distance 
_geom_bond_site_symmetry_2 
_ccdc_geom_bond_type 
C1            C2   1.407       .  A
C1            C6   1.412       .  A
C1          C164   1.470       .  S
C2            C3   1.401       .  A
C2            H7   1.083       .  S
C3            C4   1.400       .  A
C3          C297   1.496       .  S
C4            C5   1.403       .  A
C4            H8   1.083       .  S
C5            C6   1.411       .  A
C5          C284   1.504       .  S
C6            H9   1.082       .  S
C10          C11   1.411       .  A
C10          C15   1.414       .  A
C10         C160   1.485       .  S
C11         C314   1.403       .  A
C11          H16   1.083       .  S
C12          C13   1.400       .  A
C12         C313   1.403       .  A
C12         C277   1.497       .  S
C13          C14   1.402       .  A
C13          H17   1.085       .  S
C14         C317   1.408       .  A
C14         C267   1.486       .  S
C15         C316   1.408       .  A
C15          H18   1.083       .  S
C19          C20   1.417       .  A
C19          C24   1.407       .  A
C19         C171   1.485       .  S
C20          C21   1.423       .  A
C20          H25   1.080   1_545  S
C21          C22   1.411       .  A
C21         C257   1.520       .  S
C22          C23   1.400       .  A
C22          H26   1.082       .  S
C23          C24   1.389       .  A
C23         C244   1.481       .  S
C24          H27   1.084       .  S
N28          C33   1.355       .  A
N28          C32   1.356       .  A
N28          H60   1.040       .  S
N29          C36   1.347       .  A
N29          C37   1.349       .  A
N30          C35   1.353       .  A
N30          C34   1.352       .  A
N30          H61   1.042       .  S
N31          C38   1.351       .  A
N31          C39   1.352       .  A
C32          C40   1.387       .  A
C32          C48   1.421       .  A
C33          C49   1.422       .  A
C33          C41   1.389       .  A
C34          C42   1.387       .  A
C34          C51   1.415       .  A
C35          C50   1.417       .  A
C35          C43   1.388       .  A
C36          C48   1.411       .  A
C36          C44   1.387       .  A
C37          C51   1.410       .  A
C37          C45   1.385       .  A
C38          C46   1.385       .  A
C38          C49   1.414       .  A
C39          C47   1.388       .  A
C39          C50   1.419       .  A
C40          C41   1.373       .  A
C40          H52   1.082       .  S
C41          H53   1.080       .  S
C42          C43   1.381       .  A
C42          H54   1.083       .  S
C43          H55   1.082       .  S
C44          C45   1.380       .  A
C44          H56   1.082       .  S
C45          H57   1.082       .  S
C46          C47   1.375       .  A
C46          H58   1.081       .  S
C47          H59   1.081       .  S
C48         C274   1.498       .  S
C49         C287   1.497       .  S
C50         C247   1.507       .  S
C51         C234   1.493       .  S
C62         C365   1.404       .  A
C62         C369   1.411       .  A
C62         C170   1.468       .  S
C63          C64   1.400       .  A
C63         C364   1.404   1_554  A
C63         H370   1.083       .  S
C64          C65   1.401       .  A
C64         C224   1.490       .  S
C65          C66   1.399       .  A
C65          H69   1.085       .  S
C66          C67   1.409   1_554  A
C66         C237   1.491       .  S
C67         C364   1.411       .  A
C67         H372   1.083       .  S
H68         C365   1.083       .  S
H70         C369   1.083       .  S
C71         C374   1.414       .  A
C71         C378   1.415       .  A
C71         C167   1.489       .  S
C72          C73   1.401       .  A
C72         C373   1.414   1_554  A
C72         H379   1.083   1_554  S
C73          C74   1.396       .  A
C73         C214   1.493       .  S
C74          C75   1.399       .  A
C74          H78   1.085       .  S
C75          C76   1.409       .  A
C75         C207   1.485       .  S
C76         C373   1.415   1_554  A
C76         H381   1.083       .  S
H77         C374   1.083       .  S
H79         C378   1.083       .  S
C80          C81   1.410       .  A
C80          C85   1.414       .  A
C80         C178   1.489       .  S
C81          C82   1.410       .  A
C81          H86   1.082   1_545  S
C82          C83   1.410       .  A
C82         C187   1.499       .  S
C83          C84   1.400       .  A
C83          H87   1.084       .  S
C84          C85   1.402       .  A
C84         C194   1.500       .  S
C85          H88   1.083       .  S
N89          C94   1.354       .  A
N89        C1301   1.355       .  A
N89         H121   1.039   1_455  S
N90          C97   1.351       .  A
N90          C98   1.351       .  A
N91          C96   1.354       .  A
N91        C1303   1.353       .  A
N91         H122   1.040   1_655  S
N92          C99   1.349       .  A
N92         C100   1.349       .  A
C93         C101   1.385       .  A
C93         C109   1.414       .  A
C93        N1297   1.355       .  A
C94         C110   1.419       .  A
C94         C102   1.389       .  A
C95         C103   1.390       .  A
C95         C112   1.418       .  A
C95        N1299   1.353       .  A
C96         C111   1.410   1_655  A
C96         C104   1.384       .  A
C97         C109   1.418       .  A
C97         C105   1.386       .  A
C98         C112   1.419       .  A
C98         C106   1.386       .  A
C99         C107   1.386       .  A
C99         C110   1.414       .  A
C100        C108   1.386       .  A
C100        C111   1.414       .  A
C101       C1310   1.371       .  A
C101        H113   1.083       .  S
C102       C1309   1.371       .  A
C102        H114   1.082       .  S
C103       C1312   1.371       .  A
C103        H115   1.082       .  S
C104       C1311   1.371       .  A
C104        H116   1.083       .  S
C105        C106   1.376       .  A
C105        H117   1.081       .  S
C106        H118   1.082       .  S
C107        C108   1.374       .  A
C107        H119   1.082       .  S
C108        H120   1.081       .  S
C109        C294   1.499       .  S
C110        C217   1.492       .  S
C111        C227   1.493       .  S
C112        C197   1.496       .  S
N123        C128   1.355       .  A
N123        C731   1.351       .  A
N123        H155   1.039       .  S
N124        C131   1.355       .  A
N124        C132   1.352       .  A
N125        C130   1.358       .  A
N125        C129   1.356       .  A
N125        H156   1.039       .  S
N126        C133   1.350       .  A
N126        C134   1.349       .  A
C127        C143   1.413       .  A
C127        C739   1.384       .  A
C127        N727   1.351       .  A
C128        C144   1.424       .  A
C128        C136   1.390       .  A
C129        C137   1.387       .  A
C129        C750   1.421       .  A
C130        C145   1.425       .  A
C130        C138   1.387       .  A
C131        C143   1.411       .  A
C131        C139   1.383       .  A
C132        C146   1.421       .  A
C132        C140   1.389       .  A
C133        C141   1.387       .  A
C133        C144   1.417       .  A
C134        C142   1.386       .  A
C134        C145   1.414       .  A
C135        C136   1.380       .  A
C135        C731   1.384       .  A
C135        H751   1.082       .  S
C136        H148   1.082       .  S
C137        C138   1.371       .  A
C137        H149   1.077       .  S
C138        H150   1.082       .  S
C139        C140   1.373       .  A
C139        H151   1.082       .  S
C140        H152   1.082       .  S
C141        C142   1.382       .  A
C141        H153   1.082       .  S
C142        H154   1.082       .  S
C143        C254   1.497       .  S
C144        C204   1.504       .  S
C145        C264   1.506       .  S
C146        C733   1.421       .  A
C146        C184   1.498       .  S
H147        C739   1.082       .  S
O157        C178   1.269       .  A
O157      Ni1371   1.925       .  S
O158        C167   1.271       .  A
O158       Ni181   1.924       .  S
O159       Ni163   1.903       .  S
O159       Ni785   1.915   1_545  S
O159      Ni1987   1.919   1_445  S
O159        H786   0.965   1_545  S
C160        O177   1.276       .  A
C160        O169   1.278       .  A
O161        C167   1.271       .  A
O161      Ni1388   1.928   1_455  S
O162        C164   1.265       .  A
O162       Ni180   1.897       .  S
Ni163       O166   1.916       .  S
Ni163       O168   1.899       .  S
Ni163      O1365   1.925   1_455  S
C164        O174   1.275       .  A
O165        C171   1.280       .  A
O165       Ni785   1.938   1_545  S
O166        C171   1.277       .  A
O168        C170   1.266       .  A
O169       Ni180   1.928       .  S
C170        O176   1.271       .  A
H172        O173   0.968       .  S
O173       Ni175   1.914       .  S
O173       Ni180   1.905       .  S
O173      Ni1389   1.927       .  S
O174       Ni175   1.944       .  S
Ni175       O177   1.927       .  S
Ni175       O783   1.925       .  S
Ni175      O1971   1.919       .  S
O176       Ni785   1.936   1_545  S
C178        O179   1.271       .  A
O179       Ni779   1.925   1_545  S
Ni180      O1369   1.928       .  S
Ni181       O769   1.938       .  S
Ni181       O780   1.936       .  S
Ni181       O763   1.915       .  S
Ni181      O1381   1.927   1_455  S
H182        O763   0.965       .  S
C183        C184   1.410   1_545  A
C183        C188   1.393       .  A
C183       Br190   1.932       .  S
C184        C185   1.415       .  A
C185        C186   1.417       .  A
C185       Br796   1.930       .  S
C186        C187   1.418   1_565  A
C186       Br191   1.924       .  S
C187        C188   1.406       .  A
C188       Br189   1.918       .  S
Br192       C789   1.930       .  S
C193        C194   1.416       .  A
C193        C198   1.410       .  A
C193      Br1408   1.932       .  S
C194        C195   1.415       .  A
C195        C196   1.404       .  A
C195       Br202   1.917       .  S
C196        C197   1.406       .  A
C196       Br201   1.932       .  S
C197        C198   1.413       .  A
C198      Br1407   1.928       .  S
Br199      C1406   1.928   1_455  S
Br200      C1401   1.932   1_455  S
C203        C204   1.418       .  A
C203        C208   1.413       .  A
C203       Br210   1.928       .  S
C204        C205   1.415       .  A
C205        C206   1.406       .  A
C205       Br212   1.929       .  S
C206        C207   1.408       .  A
C206       Br211   1.930   1_554  S
C207        C208   1.407       .  A
C208       Br209   1.926       .  S
C213        C214   1.416       .  A
C213        C218   1.408       .  A
C213      Br1428   1.932   1_455  S
C214        C215   1.415       .  A
C215        C216   1.403       .  A
C215       Br222   1.926       .  S
C216        C217   1.408       .  A
C216       Br221   1.932       .  S
C217        C218   1.412       .  A
C218      Br1427   1.931   1_455  S
Br219      C1426   1.931       .  S
Br220      C1421   1.932       .  S
C223        C224   1.411       .  A
C223        C228   1.400       .  A
C223       Br230   1.937       .  S
C224        C225   1.419       .  A
C225        C226   1.412       .  A
C225       Br534   1.930   1_554  S
C226        C227   1.411       .  A
C226      Br1439   1.931   1_455  S
C227        C228   1.413       .  A
C228       Br229   1.931       .  S
Br231      C1434   1.931       .  S
Br232       C527   1.930       .  S
C233        C234   1.410       .  A
C233        C238   1.410       .  A
C233       Br240   1.928       .  S
C234        C235   1.408       .  A
C235        C236   1.409       .  A
C235       Br242   1.928       .  S
C236        C237   1.415       .  A
C236       Br241   1.930   1_554  S
C237        C238   1.413       .  A
C238       Br239   1.928       .  S
C243        C244   1.402       .  A
C243        C248   1.399       .  A
C243       Br250   1.934       .  S
C244        C245   1.405       .  A
C245        C246   1.414       .  A
C245       Br252   1.924       .  S
C246        C247   1.422       .  A
C246       Br251   1.930       .  S
C247        C248   1.419       .  A
C248       Br249   1.930       .  S
C253        C254   1.400   1_545  A
C253        C258   1.395       .  A
C253       Br260   1.939       .  S
C254        C255   1.411       .  A
C255        C256   1.424       .  A
C255       Br262   1.927       .  S
C256        C257   1.427   1_565  A
C256       Br261   1.930       .  S
C257        C258   1.426       .  A
C258       Br259   1.923       .  S
C263        C264   1.418       .  A
C263        C268   1.412       .  A
C263       Br874   1.929       .  S
C264        C265   1.416       .  A
C265        C266   1.407       .  A
C265       Br272   1.927       .  S
C266        C267   1.406       .  A
C266       Br271   1.928   1_554  S
C267        C268   1.407       .  A
C268       Br269   1.925       .  S
Br270       C867   1.929       .  S
C273        C274   1.411       .  A
C273        C278   1.405       .  A
C273       Br280   1.935       .  S
C274        C275   1.412       .  A
C275        C276   1.411       .  A
C275       Br282   1.931       .  S
C276        C277   1.417       .  A
C276       Br281   1.931       .  S
C277        C278   1.416       .  A
C278       Br279   1.928       .  S
C283        C284   1.418       .  A
C283        C288   1.405       .  A
C283       Br290   1.934       .  S
C284        C285   1.418       .  A
C285        C286   1.413       .  A
C285       Br292   1.925       .  S
C286        C287   1.411       .  A
C286       Br291   1.932       .  S
C287        C288   1.409       .  A
C288       Br289   1.930       .  S
C293        C294   1.413       .  A
C293        C298   1.401       .  A
C293       Br300   1.933       .  S
C294        C295   1.412       .  A
C295        C296   1.415       .  A
C295       Br302   1.930       .  S
C296        C297   1.420       .  A
C296       Br301   1.930       .  S
C297        C298   1.411       .  A
C298       Br299   1.935       .  S
C303        C304   1.407       .  A
C303        C308   1.412       .  A
C303        C466   1.470       .  S
C304        C305   1.401       .  A
C304        H309   1.083       .  S
C305        C306   1.400       .  A
C305        C599   1.496       .  S
C306        C307   1.403       .  A
C306        H310   1.083       .  S
C307        C308   1.411       .  A
C307        C586   1.504       .  S
C308        H311   1.082       .  S
C312        C313   1.411       .  A
C312        C317   1.414       .  A
C312        C462   1.485   1_554  S
C313        H318   1.083       .  S
C314        C315   1.400       .  A
C314        C579   1.497       .  S
C315        C316   1.402       .  A
C315        H319   1.085       .  S
C316        C569   1.486       .  S
C317        H320   1.083       .  S
C321        C322   1.417       .  A
C321        C326   1.407       .  A
C321        C473   1.485       .  S
C322        C323   1.423       .  A
C322        H327   1.080   1_545  S
C323        C324   1.411       .  A
C323        C559   1.520       .  S
C324        C325   1.400       .  A
C324        H328   1.082       .  S
C325        C326   1.389       .  A
C325        C546   1.481       .  S
C326        H329   1.084       .  S
N330        C335   1.355       .  A
N330        C334   1.356       .  A
N330        H362   1.040       .  S
N331        C338   1.347       .  A
N331        C339   1.349       .  A
N332        C337   1.353       .  A
N332        C336   1.352       .  A
N332        H363   1.042       .  S
N333        C340   1.351       .  A
N333        C341   1.352       .  A
C334        C342   1.387       .  A
C334        C350   1.421       .  A
C335        C351   1.422       .  A
C335        C343   1.389       .  A
C336        C344   1.387       .  A
C336        C353   1.415       .  A
C337        C352   1.417       .  A
C337        C345   1.388       .  A
C338        C350   1.411       .  A
C338        C346   1.387       .  A
C339        C353   1.410       .  A
C339        C347   1.385       .  A
C340        C348   1.385       .  A
C340        C351   1.414       .  A
C341        C349   1.388       .  A
C341        C352   1.419       .  A
C342        C343   1.373       .  A
C342        H354   1.082       .  S
C343        H355   1.080       .  S
C344        C345   1.381       .  A
C344        H356   1.083       .  S
C345        H357   1.082       .  S
C346        C347   1.380       .  A
C346        H358   1.082       .  S
C347        H359   1.082       .  S
C348        C349   1.375       .  A
C348        H360   1.081       .  S
C349        H361   1.081       .  S
C350        C576   1.498       .  S
C351        C589   1.497       .  S
C352        C549   1.507       .  S
C353        C536   1.493       .  S
C364        C472   1.468       .  S
C365        C366   1.400       .  A
C366        C367   1.401       .  A
C366        C526   1.490       .  S
C367        C368   1.399       .  A
C367        H371   1.085       .  S
C368        C369   1.409       .  A
C368        C539   1.491       .  S
C373        C469   1.489       .  S
C374        C375   1.401       .  A
C375        C376   1.396       .  A
C375        C516   1.493       .  S
C376        C377   1.399       .  A
C376        H380   1.085       .  S
C377        C378   1.409       .  A
C377        C509   1.485       .  S
C382        C383   1.410       .  A
C382        C387   1.414       .  A
C382        C480   1.489       .  S
C383        C384   1.410       .  A
C383        H388   1.082   1_545  S
C384        C385   1.410       .  A
C384        C489   1.499       .  S
C385        C386   1.400       .  A
C385        H389   1.084       .  S
C386        C387   1.402       .  A
C386        C496   1.500       .  S
C387        H390   1.083       .  S
N391        C396   1.354       .  A
N391       C1603   1.355       .  A
N391        H423   1.039   1_455  S
N392        C399   1.351       .  A
N392        C400   1.351       .  A
N393        C398   1.354       .  A
N393       C1605   1.353       .  A
N393        H424   1.040   1_655  S
N394        C401   1.349       .  A
N394        C402   1.349       .  A
C395        C403   1.385       .  A
C395        C411   1.414       .  A
C395       N1599   1.355       .  A
C396        C412   1.419       .  A
C396        C404   1.389       .  A
C397        C405   1.390       .  A
C397        C414   1.418       .  A
C397       N1601   1.353       .  A
C398        C413   1.410   1_655  A
C398        C406   1.384       .  A
C399        C411   1.418       .  A
C399        C407   1.386       .  A
C400        C414   1.419       .  A
C400        C408   1.386       .  A
C401        C409   1.386       .  A
C401        C412   1.414       .  A
C402        C410   1.386       .  A
C402        C413   1.414       .  A
C403       C1612   1.371       .  A
C403        H415   1.083       .  S
C404       C1611   1.371       .  A
C404        H416   1.082       .  S
C405       C1614   1.371       .  A
C405        H417   1.082       .  S
C406       C1613   1.371       .  A
C406        H418   1.083       .  S
C407        C408   1.376       .  A
C407        H419   1.081       .  S
C408        H420   1.082       .  S
C409        C410   1.374       .  A
C409        H421   1.082       .  S
C410        H422   1.081       .  S
C411        C596   1.499       .  S
C412        C519   1.492       .  S
C413        C529   1.493       .  S
C414        C499   1.496       .  S
N425        C430   1.355       .  A
N425       C1033   1.351       .  A
N425        H457   1.039       .  S
N426        C433   1.355       .  A
N426        C434   1.352       .  A
N427        C432   1.358       .  A
N427        C431   1.356       .  A
N427        H458   1.039       .  S
N428        C435   1.350       .  A
N428        C436   1.349       .  A
C429       C1041   1.384       .  A
C429        C445   1.413       .  A
C429       N1029   1.351       .  A
C430        C446   1.424       .  A
C430        C438   1.390       .  A
C431        C439   1.387       .  A
C431       C1052   1.421       .  A
C432        C447   1.425       .  A
C432        C440   1.387       .  A
C433        C445   1.411       .  A
C433        C441   1.383       .  A
C434        C448   1.421       .  A
C434        C442   1.389       .  A
C435        C443   1.387       .  A
C435        C446   1.417       .  A
C436        C444   1.386       .  A
C436        C447   1.414       .  A
C437       C1033   1.384       .  A
C437        C438   1.380       .  A
C437       H1053   1.082       .  S
C438        H450   1.082       .  S
C439        C440   1.371       .  A
C439        H451   1.077       .  S
C440        H452   1.082       .  S
C441        C442   1.373       .  A
C441        H453   1.082       .  S
C442        H454   1.082       .  S
C443        C444   1.382       .  A
C443        H455   1.082       .  S
C444        H456   1.082       .  S
C445        C556   1.497       .  S
C446        C506   1.504       .  S
C447        C566   1.506       .  S
C448       C1035   1.421       .  A
C448        C486   1.498       .  S
H449       C1041   1.082       .  S
O459        C480   1.269       .  A
O459      Ni1673   1.925       .  S
O460        C469   1.271       .  A
O460       Ni483   1.924       .  S
O461       Ni465   1.903       .  S
O461      Ni1087   1.915   1_545  S
O461      Ni2289   1.919   1_445  S
O461       H1088   0.965   1_545  S
C462        O479   1.276       .  A
C462        O471   1.278       .  A
O463        C469   1.271       .  A
O463      Ni1690   1.928   1_455  S
O464        C466   1.265       .  A
O464       Ni482   1.897       .  S
Ni465      O1667   1.925   1_455  S
Ni465       O468   1.916       .  S
Ni465       O470   1.899       .  S
C466        O476   1.275       .  A
O467        C473   1.280       .  A
O467      Ni1087   1.938   1_545  S
O468        C473   1.277       .  A
O470        C472   1.266       .  A
O471       Ni482   1.928       .  S
C472        O478   1.271       .  A
H474        O475   0.968       .  S
O475      Ni1691   1.927       .  S
O475       Ni477   1.914       .  S
O475       Ni482   1.905       .  S
O476       Ni477   1.944       .  S
Ni477      O1085   1.925       .  S
Ni477       O479   1.927       .  S
Ni477      O2273   1.919       .  S
O478      Ni1087   1.936   1_545  S
C480        O481   1.271       .  A
O481      Ni1081   1.925   1_545  S
Ni482      O1671   1.928       .  S
Ni483      O1071   1.938       .  S
Ni483      O1082   1.936       .  S
Ni483      O1065   1.915       .  S
Ni483      O1683   1.927   1_455  S
H484       O1065   0.965       .  S
C485        C486   1.410   1_545  A
C485        C490   1.393       .  A
C485       Br492   1.932       .  S
C486        C487   1.415       .  A
C487        C488   1.417       .  A
C487      Br1098   1.930       .  S
C488        C489   1.418   1_565  A
C488       Br493   1.924       .  S
C489        C490   1.406       .  A
C490       Br491   1.918       .  S
Br494      C1091   1.930       .  S
C495        C496   1.416       .  A
C495        C500   1.410       .  A
C495      Br1710   1.932       .  S
C496        C497   1.415       .  A
C497        C498   1.404       .  A
C497       Br504   1.917       .  S
C498        C499   1.406       .  A
C498       Br503   1.932       .  S
C499        C500   1.413       .  A
C500      Br1709   1.928       .  S
Br501      C1708   1.928   1_455  S
Br502      C1703   1.932   1_455  S
C505        C506   1.418       .  A
C505        C510   1.413       .  A
C505       Br512   1.928       .  S
C506        C507   1.415       .  A
C507        C508   1.406       .  A
C507       Br514   1.929       .  S
C508        C509   1.408       .  A
C508       Br513   1.930       .  S
C509        C510   1.407       .  A
C510       Br511   1.926       .  S
C515        C516   1.416       .  A
C515        C520   1.408       .  A
C515      Br1730   1.932   1_455  S
C516        C517   1.415       .  A
C517        C518   1.403       .  A
C517       Br524   1.926       .  S
C518        C519   1.408       .  A
C518       Br523   1.932       .  S
C519        C520   1.412       .  A
C520      Br1729   1.931   1_455  S
Br521      C1728   1.931       .  S
Br522      C1723   1.932       .  S
C525        C526   1.411       .  A
C525        C530   1.400       .  A
C525       Br532   1.937       .  S
C526        C527   1.419       .  A
C527        C528   1.412       .  A
C528        C529   1.411       .  A
C528      Br1741   1.931   1_455  S
C529        C530   1.413       .  A
C530       Br531   1.931       .  S
Br533      C1736   1.931       .  S
C535        C536   1.410       .  A
C535        C540   1.410       .  A
C535       Br542   1.928       .  S
C536        C537   1.408       .  A
C537        C538   1.409       .  A
C537       Br544   1.928       .  S
C538        C539   1.415       .  A
C538       Br543   1.930       .  S
C539        C540   1.413       .  A
C540       Br541   1.928       .  S
C545        C546   1.402       .  A
C545        C550   1.399       .  A
C545       Br552   1.934       .  S
C546        C547   1.405       .  A
C547        C548   1.414       .  A
C547       Br554   1.924       .  S
C548        C549   1.422       .  A
C548       Br553   1.930       .  S
C549        C550   1.419       .  A
C550       Br551   1.930       .  S
C555        C556   1.400   1_545  A
C555        C560   1.395       .  A
C555       Br562   1.939       .  S
C556        C557   1.411       .  A
C557        C558   1.424       .  A
C557       Br564   1.927       .  S
C558        C559   1.427   1_565  A
C558       Br563   1.930       .  S
C559        C560   1.426       .  A
C560       Br561   1.923       .  S
C565        C566   1.418       .  A
C565        C570   1.412       .  A
C565      Br1176   1.929       .  S
C566        C567   1.416       .  A
C567        C568   1.407       .  A
C567       Br574   1.927       .  S
C568        C569   1.406       .  A
C568       Br573   1.928       .  S
C569        C570   1.407       .  A
C570       Br571   1.925       .  S
Br572      C1169   1.929       .  S
C575        C576   1.411       .  A
C575        C580   1.405       .  A
C575       Br582   1.935       .  S
C576        C577   1.412       .  A
C577        C578   1.411       .  A
C577       Br584   1.931       .  S
C578        C579   1.417       .  A
C578       Br583   1.931       .  S
C579        C580   1.416       .  A
C580       Br581   1.928       .  S
C585        C586   1.418       .  A
C585        C590   1.405       .  A
C585       Br592   1.934       .  S
C586        C587   1.418       .  A
C587        C588   1.413       .  A
C587       Br594   1.925       .  S
C588        C589   1.411       .  A
C588       Br593   1.932       .  S
C589        C590   1.409       .  A
C590       Br591   1.930       .  S
C595        C596   1.413       .  A
C595        C600   1.401       .  A
C595       Br602   1.933       .  S
C596        C597   1.412       .  A
C597        C598   1.415       .  A
C597       Br604   1.930       .  S
C598        C599   1.420       .  A
C598       Br603   1.930       .  S
C599        C600   1.411       .  A
C600       Br601   1.935       .  S
C605        C606   1.407       .  A
C605        C610   1.412       .  A
C605        C768   1.470       .  S
C606        C607   1.401       .  A
C606        H611   1.083       .  S
C607        C608   1.400       .  A
C607        C901   1.496       .  S
C608        C609   1.403       .  A
C608        H612   1.083       .  S
C609        C610   1.411       .  A
C609        C888   1.504       .  S
C610        H613   1.082       .  S
C614        C615   1.411       .  A
C614        C619   1.414       .  A
C614        C764   1.485       .  S
C615        C918   1.403       .  A
C615        H620   1.083       .  S
C616        C917   1.403       .  A
C616        C617   1.400       .  A
C616        C881   1.497       .  S
C617        C618   1.402       .  A
C617        H621   1.085       .  S
C618        C921   1.408       .  A
C618        C871   1.486       .  S
C619        C920   1.408       .  A
C619        H622   1.083       .  S
C623        C624   1.417       .  A
C623        C628   1.407       .  A
C623        C775   1.485       .  S
C624        C625   1.423       .  A
C624        H629   1.080       .  S
C625        C626   1.411       .  A
C625        C861   1.520       .  S
C626        C627   1.400       .  A
C626        H630   1.082       .  S
C627        C628   1.389       .  A
C627        C848   1.481       .  S
C628        H631   1.084       .  S
N632        C637   1.355       .  A
N632        C636   1.356       .  A
N632        H664   1.040       .  S
N633        C640   1.347       .  A
N633        C641   1.349       .  A
N634        C639   1.353       .  A
N634        C638   1.352       .  A
N634        H665   1.042       .  S
N635        C642   1.351       .  A
N635        C643   1.352       .  A
C636        C644   1.387       .  A
C636        C652   1.421       .  A
C637        C653   1.422       .  A
C637        C645   1.389       .  A
C638        C646   1.387       .  A
C638        C655   1.415       .  A
C639        C654   1.417       .  A
C639        C647   1.388       .  A
C640        C652   1.411       .  A
C640        C648   1.387       .  A
C641        C655   1.410       .  A
C641        C649   1.385       .  A
C642        C650   1.385       .  A
C642        C653   1.414       .  A
C643        C651   1.388       .  A
C643        C654   1.419       .  A
C644        C645   1.373       .  A
C644        H656   1.082       .  S
C645        H657   1.080       .  S
C646        C647   1.381       .  A
C646        H658   1.083       .  S
C647        H659   1.082       .  S
C648        C649   1.380       .  A
C648        H660   1.082       .  S
C649        H661   1.082       .  S
C650        C651   1.375       .  A
C650        H662   1.081       .  S
C651        H663   1.081       .  S
C652        C878   1.498       .  S
C653        C891   1.497       .  S
C654        C851   1.507       .  S
C655        C838   1.493       .  S
C666        C969   1.404       .  A
C666        C973   1.411       .  A
C666        C774   1.468       .  S
C667        C968   1.404   1_554  A
C667        C668   1.400       .  A
C667        H974   1.083       .  S
C668        C669   1.401       .  A
C668        C828   1.489       .  S
C669        C670   1.399       .  A
C669        H673   1.085       .  S
C670        C671   1.409   1_554  A
C670        C841   1.491       .  S
C671        C968   1.411       .  A
C671        H976   1.083       .  S
H672        C969   1.083       .  S
H674        C973   1.083       .  S
C675        C978   1.414       .  A
C675        C982   1.415       .  A
C675        C771   1.489       .  S
C676        C977   1.414   1_554  A
C676        C677   1.401       .  A
C676        H983   1.083   1_554  S
C677        C678   1.396       .  A
C677        C818   1.493       .  S
C678        C679   1.399       .  A
C678        H682   1.085       .  S
C679        C680   1.409       .  A
C679        C811   1.485       .  S
C680        C977   1.415   1_554  A
C680        H985   1.083       .  S
H681        C978   1.083       .  S
H683        C982   1.083       .  S
C684        C685   1.410       .  A
C684        C689   1.414       .  A
C684        C782   1.489       .  S
C685        C686   1.410       .  A
C685        H690   1.082       .  S
C686        C687   1.410       .  A
C686        C791   1.499       .  S
C687        C688   1.400       .  A
C687        H691   1.084       .  S
C688        C689   1.402       .  A
C688        C798   1.500       .  S
C689        H692   1.083       .  S
N693        C698   1.354       .  A
N693       C1905   1.354       .  A
N693        H725   1.039   1_455  S
N694        C701   1.351       .  A
N694        C702   1.351       .  A
N695        C700   1.354       .  A
N695       C1907   1.353       .  A
N695        H726   1.040   1_655  S
N696        C703   1.349       .  A
N696        C704   1.349       .  A
C697        C705   1.385       .  A
C697        C713   1.414       .  A
C697       N1901   1.354       .  A
C698        C714   1.419       .  A
C698        C706   1.389       .  A
C699        C707   1.390       .  A
C699        C716   1.418       .  A
C699       N1903   1.353       .  A
C700        C715   1.410   1_655  A
C700        C708   1.384       .  A
C701        C713   1.418       .  A
C701        C709   1.386       .  A
C702        C716   1.419       .  A
C702        C710   1.386       .  A
C703        C711   1.386       .  A
C703        C714   1.414       .  A
C704        C712   1.386       .  A
C704        C715   1.414       .  A
C705       C1914   1.371       .  A
C705        H717   1.083       .  S
C706       C1913   1.371       .  A
C706        H718   1.082       .  S
C707       C1916   1.371       .  A
C707        H719   1.082       .  S
C708       C1915   1.371       .  A
C708        H720   1.083       .  S
C709        C710   1.376       .  A
C709        H721   1.081       .  S
C710        H722   1.082       .  S
C711        C712   1.374       .  A
C711        H723   1.082       .  S
C712        H724   1.081       .  S
C713        C898   1.498       .  S
C714        C821   1.492       .  S
C715        C831   1.493       .  S
C716        C801   1.496       .  S
N727        C732   1.355       .  A
N727        H759   1.039       .  S
N728        C735   1.355       .  A
N728        C736   1.352       .  A
N729        C734   1.358       .  A
N729        C733   1.356       .  A
N729        H760   1.039       .  S
N730        C737   1.350       .  A
N730        C738   1.349       .  A
C731        C747   1.413       .  A
C732        C748   1.424       .  A
C732        C740   1.390       .  A
C733        C741   1.387       .  A
C734        C749   1.425       .  A
C734        C742   1.387       .  A
C735        C747   1.411       .  A
C735        C743   1.383       .  A
C736        C750   1.421       .  A
C736        C744   1.389       .  A
C737        C745   1.387   1_565  A
C737        C748   1.417       .  A
C738        C746   1.386   1_565  A
C738        C749   1.414       .  A
C739        C740   1.380       .  A
C740        H752   1.082       .  S
C741        C742   1.371       .  A
C741        H753   1.077       .  S
C742        H754   1.082       .  S
C743        C744   1.373       .  A
C743        H755   1.082       .  S
C744        H756   1.082       .  S
C745        C746   1.382       .  A
C745        H757   1.082       .  S
C746        H758   1.082       .  S
C747        C858   1.497       .  S
C748        C808   1.504       .  S
C749        C868   1.506       .  S
C750        C788   1.498       .  S
O761        C782   1.269       .  A
O761      Ni1975   1.925       .  S
O762        C771   1.271       .  A
O762       Ni785   1.924       .  S
O763       Ni767   1.903       .  S
O763      Ni1383   1.919   1_455  S
C764        O781   1.276       .  A
C764        O773   1.278       .  A
O765        C771   1.271       .  A
O765      Ni1992   1.928   1_455  S
O766        C768   1.265       .  A
O766       Ni784   1.897       .  S
Ni767      O1969   1.925   1_455  S
Ni767       O770   1.916       .  S
Ni767       O772   1.899       .  S
C768        O778   1.275       .  A
O769        C775   1.280       .  A
O770        C775   1.277       .  A
O772        C774   1.266       .  A
O773       Ni784   1.928       .  S
C774        O780   1.271       .  A
H776        O777   0.968       .  S
O777      Ni1993   1.927       .  S
O777       Ni779   1.914       .  S
O777       Ni784   1.905       .  S
O778       Ni779   1.944       .  S
Ni779       O781   1.927       .  S
Ni779      O1367   1.919   1_565  S
C782        O783   1.271       .  A
Ni784      O1973   1.928       .  S
Ni785      O1985   1.927   1_455  S
C787        C788   1.410       .  A
C787        C792   1.393       .  A
C787       Br794   1.932       .  S
C788        C789   1.415       .  A
C789        C790   1.417       .  A
C790        C791   1.418       .  A
C790       Br795   1.924       .  S
C791        C792   1.406       .  A
C792       Br793   1.918       .  S
C797        C798   1.416       .  A
C797        C802   1.410       .  A
C797      Br2012   1.932       .  S
C798        C799   1.415       .  A
C799        C800   1.403       .  A
C799       Br806   1.917       .  S
C800        C801   1.406       .  A
C800       Br805   1.932       .  S
C801        C802   1.413       .  A
C802      Br2011   1.928       .  S
Br803      C2010   1.928   1_455  S
Br804      C2005   1.932   1_455  S
C807        C808   1.418       .  A
C807        C812   1.413       .  A
C807       Br814   1.928   1_565  S
C808        C809   1.415       .  A
C809        C810   1.406       .  A
C809       Br816   1.928       .  S
C810        C811   1.408       .  A
C810       Br815   1.930   1_554  S
C811        C812   1.407       .  A
C812       Br813   1.926   1_565  S
C817        C818   1.416       .  A
C817        C822   1.408       .  A
C817      Br2032   1.933   1_455  S
C818        C819   1.415       .  A
C819        C820   1.403       .  A
C819       Br826   1.926       .  S
C820        C821   1.408       .  A
C820       Br825   1.932       .  S
C821        C822   1.412       .  A
C822      Br2031   1.931   1_455  S
Br823      C2030   1.931       .  S
Br824      C2025   1.933       .  S
C827        C828   1.411       .  A
C827        C832   1.400       .  A
C827       Br834   1.937       .  S
C828        C829   1.419       .  A
C829        C830   1.412       .  A
C829      Br1138   1.930   1_554  S
C830        C831   1.411       .  A
C830      Br2043   1.931   1_455  S
C831        C832   1.413       .  A
C832       Br833   1.931       .  S
Br835      C2038   1.931       .  S
Br836      C1131   1.930       .  S
C837        C838   1.410       .  A
C837        C842   1.410       .  A
C837       Br844   1.928       .  S
C838        C839   1.408       .  A
C839        C840   1.409       .  A
C839       Br846   1.928       .  S
C840        C841   1.415       .  A
C840       Br845   1.930   1_554  S
C841        C842   1.413       .  A
C842       Br843   1.928       .  S
C847        C848   1.402       .  A
C847        C852   1.399       .  A
C847       Br854   1.934       .  S
C848        C849   1.405       .  A
C849        C850   1.414       .  A
C849       Br856   1.924       .  S
C850        C851   1.422       .  A
C850       Br855   1.930       .  S
C851        C852   1.419       .  A
C852       Br853   1.930       .  S
C857        C858   1.400       .  A
C857        C862   1.395       .  A
C857       Br864   1.939       .  S
C858        C859   1.411       .  A
C859        C860   1.424       .  A
C859       Br866   1.927       .  S
C860        C861   1.427       .  A
C860       Br865   1.930       .  S
C861        C862   1.426       .  A
C862       Br863   1.923       .  S
C867        C868   1.418   1_545  A
C867        C872   1.412   1_545  A
C868        C869   1.416       .  A
C869        C870   1.407       .  A
C869       Br876   1.927       .  S
C870        C871   1.406       .  A
C870       Br875   1.928   1_554  S
C871        C872   1.407       .  A
C872       Br873   1.925   1_565  S
C877        C878   1.411       .  A
C877        C882   1.405       .  A
C877       Br884   1.935       .  S
C878        C879   1.412       .  A
C879        C880   1.411       .  A
C879       Br886   1.931       .  S
C880        C881   1.417       .  A
C880       Br885   1.931       .  S
C881        C882   1.416       .  A
C882       Br883   1.928       .  S
C887        C888   1.418       .  A
C887        C892   1.405       .  A
C887       Br894   1.934       .  S
C888        C889   1.418       .  A
C889        C890   1.413       .  A
C889       Br896   1.925       .  S
C890        C891   1.411       .  A
C890       Br895   1.932       .  S
C891        C892   1.409       .  A
C892       Br893   1.930       .  S
C897        C898   1.413       .  A
C897        C902   1.401       .  A
C897       Br904   1.933       .  S
C898        C899   1.412       .  A
C899        C900   1.415       .  A
C899       Br906   1.930       .  S
C900        C901   1.420       .  A
C900       Br905   1.930       .  S
C901        C902   1.411       .  A
C902       Br903   1.935       .  S
C907        C908   1.407       .  A
C907        C912   1.412       .  A
C907       C1070   1.470       .  S
C908        C909   1.401       .  A
C908        H913   1.083       .  S
C909        C910   1.400       .  A
C909       C1203   1.496       .  S
C910        C911   1.403       .  A
C910        H914   1.083       .  S
C911        C912   1.411       .  A
C911       C1190   1.504       .  S
C912        H915   1.082       .  S
C916        C917   1.411       .  A
C916        C921   1.414       .  A
C916       C1066   1.485   1_554  S
C917        H922   1.083       .  S
C918        C919   1.400       .  A
C918       C1183   1.497       .  S
C919        C920   1.402       .  A
C919        H923   1.085       .  S
C920       C1173   1.486       .  S
C921        H924   1.083       .  S
C925        C926   1.417       .  A
C925        C930   1.407       .  A
C925       C1077   1.485       .  S
C926        C927   1.423       .  A
C926        H931   1.080       .  S
C927        C928   1.411       .  A
C927       C1163   1.520       .  S
C928        C929   1.400       .  A
C928        H932   1.082       .  S
C929        C930   1.389       .  A
C929       C1150   1.481       .  S
C930        H933   1.084       .  S
N934        C939   1.355       .  A
N934        C938   1.356       .  A
N934        H966   1.040       .  S
N935        C942   1.347       .  A
N935        C943   1.349       .  A
N936        C941   1.353       .  A
N936        C940   1.352       .  A
N936        H967   1.042       .  S
N937        C944   1.351       .  A
N937        C945   1.352       .  A
C938        C946   1.387       .  A
C938        C954   1.421       .  A
C939        C955   1.422       .  A
C939        C947   1.389       .  A
C940        C948   1.387       .  A
C940        C957   1.415       .  A
C941        C956   1.417       .  A
C941        C949   1.388       .  A
C942        C954   1.411       .  A
C942        C950   1.387       .  A
C943        C957   1.410       .  A
C943        C951   1.385       .  A
C944        C952   1.385       .  A
C944        C955   1.414       .  A
C945        C953   1.388       .  A
C945        C956   1.419       .  A
C946        C947   1.373       .  A
C946        H958   1.082       .  S
C947        H959   1.080       .  S
C948        C949   1.381       .  A
C948        H960   1.083       .  S
C949        H961   1.082       .  S
C950        C951   1.380       .  A
C950        H962   1.082       .  S
C951        H963   1.082       .  S
C952        C953   1.375       .  A
C952        H964   1.081       .  S
C953        H965   1.081       .  S
C954       C1180   1.498       .  S
C955       C1193   1.497       .  S
C956       C1153   1.507       .  S
C957       C1140   1.493       .  S
C968       C1076   1.468       .  S
C969        C970   1.400       .  A
C970        C971   1.401       .  A
C970       C1130   1.489       .  S
C971        C972   1.399       .  A
C971        H975   1.085       .  S
C972        C973   1.409       .  A
C972       C1143   1.491       .  S
C977       C1073   1.489       .  S
C978        C979   1.401       .  A
C979        C980   1.396       .  A
C979       C1120   1.493       .  S
C980        C981   1.399       .  A
C980        H984   1.085       .  S
C981        C982   1.409       .  A
C981       C1113   1.485       .  S
C986        C987   1.410       .  A
C986        C991   1.414       .  A
C986       C1084   1.489       .  S
C987        C988   1.410       .  A
C987        H992   1.082       .  S
C988        C989   1.410       .  A
C988       C1093   1.499       .  S
C989        C990   1.400       .  A
C989        H993   1.084       .  S
C990        C991   1.402       .  A
C990       C1100   1.500       .  S
C991        H994   1.083       .  S
N995       C1000   1.354       .  A
N995       C2207   1.354       .  A
N995       H1027   1.039   1_455  S
N996       C1003   1.351       .  A
N996       C1004   1.351       .  A
N997       C1002   1.354       .  A
N997       C2209   1.353       .  A
N997       H1028   1.040   1_655  S
N998       C1005   1.349       .  A
N998       C1006   1.349       .  A
C999       C1007   1.385       .  A
C999       C1015   1.414       .  A
C999       N2203   1.354       .  A
C1000      C1016   1.419       .  A
C1000      C1008   1.389       .  A
C1001      C1009   1.390       .  A
C1001      C1018   1.418       .  A
C1001      N2205   1.353       .  A
C1002      C1017   1.410   1_655  A
C1002      C1010   1.384       .  A
C1003      C1015   1.418       .  A
C1003      C1011   1.386       .  A
C1004      C1018   1.419       .  A
C1004      C1012   1.386       .  A
C1005      C1013   1.386       .  A
C1005      C1016   1.414       .  A
C1006      C1014   1.386       .  A
C1006      C1017   1.414       .  A
C1007      C2216   1.371       .  A
C1007      H1019   1.083       .  S
C1008      C2215   1.371       .  A
C1008      H1020   1.082       .  S
C1009      C2218   1.371       .  A
C1009      H1021   1.082       .  S
C1010      C2217   1.371       .  A
C1010      H1022   1.083       .  S
C1011      C1012   1.376       .  A
C1011      H1023   1.081       .  S
C1012      H1024   1.082       .  S
C1013      C1014   1.374       .  A
C1013      H1025   1.082       .  S
C1014      H1026   1.081       .  S
C1015      C1200   1.498       .  S
C1016      C1123   1.492       .  S
C1017      C1133   1.493       .  S
C1018      C1103   1.496       .  S
N1029      C1034   1.355       .  A
N1029      H1061   1.039       .  S
N1030      C1037   1.355       .  A
N1030      C1038   1.352       .  A
N1031      C1036   1.358       .  A
N1031      C1035   1.356       .  A
N1031      H1062   1.039       .  S
N1032      C1039   1.350       .  A
N1032      C1040   1.349       .  A
C1033      C1049   1.413       .  A
C1034      C1050   1.424       .  A
C1034      C1042   1.390       .  A
C1035      C1043   1.387       .  A
C1036      C1051   1.425       .  A
C1036      C1044   1.387       .  A
C1037      C1049   1.411       .  A
C1037      C1045   1.383       .  A
C1038      C1052   1.421       .  A
C1038      C1046   1.389       .  A
C1039      C1047   1.387   1_565  A
C1039      C1050   1.417       .  A
C1040      C1048   1.386   1_565  A
C1040      C1051   1.414       .  A
C1041      C1042   1.380       .  A
C1042      H1054   1.082       .  S
C1043      C1044   1.371       .  A
C1043      H1055   1.077       .  S
C1044      H1056   1.082       .  S
C1045      C1046   1.373       .  A
C1045      H1057   1.082       .  S
C1046      H1058   1.082       .  S
C1047      C1048   1.382       .  A
C1047      H1059   1.082       .  S
C1048      H1060   1.082       .  S
C1049      C1160   1.497       .  S
C1050      C1110   1.504       .  S
C1051      C1170   1.506       .  S
C1052      C1090   1.498       .  S
O1063      C1084   1.269       .  A
O1063     Ni2277   1.925       .  S
O1064      C1073   1.271       .  A
O1064     Ni1087   1.924       .  S
O1065     Ni1069   1.903       .  S
O1065     Ni1685   1.919   1_455  S
C1066      O1083   1.276       .  A
C1066      O1075   1.278       .  A
O1067      C1073   1.271       .  A
O1067     Ni2294   1.928   1_455  S
O1068      C1070   1.265       .  A
O1068     Ni1086   1.897       .  S
Ni1069     O2271   1.925   1_455  S
Ni1069     O1072   1.916       .  S
Ni1069     O1074   1.899       .  S
C1070      O1080   1.275       .  A
O1071      C1077   1.280       .  A
O1072      C1077   1.277       .  A
O1074      C1076   1.266       .  A
O1075     Ni1086   1.928       .  S
C1076      O1082   1.271       .  A
H1078      O1079   0.968       .  S
O1079     Ni2295   1.927       .  S
O1079     Ni1081   1.914       .  S
O1079     Ni1086   1.905       .  S
O1080     Ni1081   1.944       .  S
Ni1081     O1083   1.927       .  S
Ni1081     O1669   1.919   1_565  S
C1084      O1085   1.271       .  A
Ni1086     O2275   1.928       .  S
Ni1087     O2287   1.927   1_455  S
C1089      C1090   1.410       .  A
C1089      C1094   1.393       .  A
C1089     Br1096   1.932       .  S
C1090      C1091   1.415       .  A
C1091      C1092   1.417       .  A
C1092      C1093   1.418       .  A
C1092     Br1097   1.924       .  S
C1093      C1094   1.406       .  A
C1094     Br1095   1.918       .  S
C1099      C1100   1.416       .  A
C1099      C1104   1.410       .  A
C1099     Br2314   1.932       .  S
C1100      C1101   1.415       .  A
C1101      C1102   1.403       .  A
C1101     Br1108   1.917       .  S
C1102      C1103   1.406       .  A
C1102     Br1107   1.932       .  S
C1103      C1104   1.413       .  A
C1104     Br2313   1.928       .  S
Br1105     C2312   1.928   1_455  S
Br1106     C2307   1.932   1_455  S
C1109      C1110   1.418       .  A
C1109      C1114   1.413       .  A
C1109     Br1116   1.928   1_565  S
C1110      C1111   1.415       .  A
C1111      C1112   1.406       .  A
C1111     Br1118   1.928       .  S
C1112      C1113   1.408       .  A
C1112     Br1117   1.930       .  S
C1113      C1114   1.407       .  A
C1114     Br1115   1.926   1_565  S
C1119      C1120   1.416       .  A
C1119      C1124   1.408       .  A
C1119     Br2334   1.933   1_455  S
C1120      C1121   1.415       .  A
C1121      C1122   1.403       .  A
C1121     Br1128   1.926       .  S
C1122      C1123   1.408       .  A
C1122     Br1127   1.932       .  S
C1123      C1124   1.412       .  A
C1124     Br2333   1.931   1_455  S
Br1125     C2332   1.931       .  S
Br1126     C2327   1.932       .  S
C1129      C1130   1.411       .  A
C1129      C1134   1.400       .  A
C1129     Br1136   1.937       .  S
C1130      C1131   1.419       .  A
C1131      C1132   1.412       .  A
C1132      C1133   1.411       .  A
C1132     Br2345   1.931   1_455  S
C1133      C1134   1.413       .  A
C1134     Br1135   1.931       .  S
Br1137     C2340   1.931       .  S
C1139      C1140   1.410       .  A
C1139      C1144   1.410       .  A
C1139     Br1146   1.928       .  S
C1140      C1141   1.408       .  A
C1141      C1142   1.409       .  A
C1141     Br1148   1.928       .  S
C1142      C1143   1.415       .  A
C1142     Br1147   1.930       .  S
C1143      C1144   1.413       .  A
C1144     Br1145   1.928       .  S
C1149      C1150   1.402       .  A
C1149      C1154   1.399       .  A
C1149     Br1156   1.934       .  S
C1150      C1151   1.405       .  A
C1151      C1152   1.414       .  A
C1151     Br1158   1.924       .  S
C1152      C1153   1.422       .  A
C1152     Br1157   1.930       .  S
C1153      C1154   1.419       .  A
C1154     Br1155   1.930       .  S
C1159      C1160   1.400       .  A
C1159      C1164   1.395       .  A
C1159     Br1166   1.939       .  S
C1160      C1161   1.411       .  A
C1161      C1162   1.424       .  A
C1161     Br1168   1.927       .  S
C1162      C1163   1.427       .  A
C1162     Br1167   1.930       .  S
C1163      C1164   1.426       .  A
C1164     Br1165   1.923       .  S
C1169      C1170   1.418   1_545  A
C1169      C1174   1.412   1_545  A
C1170      C1171   1.416       .  A
C1171      C1172   1.407       .  A
C1171     Br1178   1.927       .  S
C1172      C1173   1.406       .  A
C1172     Br1177   1.928       .  S
C1173      C1174   1.407       .  A
C1174     Br1175   1.925   1_565  S
C1179      C1180   1.411       .  A
C1179      C1184   1.405       .  A
C1179     Br1186   1.935       .  S
C1180      C1181   1.412       .  A
C1181      C1182   1.411       .  A
C1181     Br1188   1.931       .  S
C1182      C1183   1.417       .  A
C1182     Br1187   1.931       .  S
C1183      C1184   1.416       .  A
C1184     Br1185   1.928       .  S
C1189      C1190   1.418       .  A
C1189      C1194   1.405       .  A
C1189     Br1196   1.934       .  S
C1190      C1191   1.418       .  A
C1191      C1192   1.413       .  A
C1191     Br1198   1.925       .  S
C1192      C1193   1.411       .  A
C1192     Br1197   1.932       .  S
C1193      C1194   1.409       .  A
C1194     Br1195   1.930       .  S
C1199      C1200   1.413       .  A
C1199      C1204   1.401       .  A
C1199     Br1206   1.933       .  S
C1200      C1201   1.412       .  A
C1201      C1202   1.415       .  A
C1201     Br1208   1.930       .  S
C1202      C1203   1.420       .  A
C1202     Br1207   1.930       .  S
C1203      C1204   1.411       .  A
C1204     Br1205   1.935       .  S
C1209      C1210   1.407       .  A
C1209      C1214   1.412       .  A
C1209      C1372   1.470       .  S
C1210      C1211   1.401       .  A
C1210      H1215   1.083       .  S
C1211      C1212   1.400       .  A
C1211      C1505   1.496       .  S
C1212      C1213   1.403       .  A
C1212      H1216   1.083       .  S
C1213      C1214   1.411       .  A
C1213      C1492   1.504       .  S
C1214      H1217   1.082       .  S
C1218      C1219   1.411       .  A
C1218      C1223   1.414       .  A
C1218      C1368   1.485       .  S
C1219      C1522   1.403       .  A
C1219      H1224   1.083       .  S
C1220      C1521   1.403       .  A
C1220      C1221   1.400       .  A
C1220      C1485   1.497       .  S
C1221      C1222   1.402       .  A
C1221      H1225   1.085       .  S
C1222      C1525   1.408       .  A
C1222      C1475   1.486       .  S
C1223      C1524   1.408       .  A
C1223      H1226   1.083       .  S
C1227      C1228   1.417       .  A
C1227      C1232   1.407       .  A
C1227      C1379   1.485       .  S
C1228      C1229   1.423       .  A
C1228      H1233   1.080   1_545  S
C1229      C1230   1.411       .  A
C1229      C1465   1.520       .  S
C1230      C1231   1.400       .  A
C1230      H1234   1.082       .  S
C1231      C1232   1.389       .  A
C1231      C1452   1.481       .  S
C1232      H1235   1.084       .  S
N1236      C1241   1.355       .  A
N1236      C1240   1.356       .  A
N1236      H1268   1.040       .  S
N1237      C1244   1.347       .  A
N1237      C1245   1.349       .  A
N1238      C1243   1.353       .  A
N1238      C1242   1.352       .  A
N1238      H1269   1.042       .  S
N1239      C1246   1.351       .  A
N1239      C1247   1.352       .  A
C1240      C1248   1.387       .  A
C1240      C1256   1.421       .  A
C1241      C1257   1.422       .  A
C1241      C1249   1.389       .  A
C1242      C1250   1.387       .  A
C1242      C1259   1.415       .  A
C1243      C1258   1.417       .  A
C1243      C1251   1.388       .  A
C1244      C1256   1.411       .  A
C1244      C1252   1.387       .  A
C1245      C1259   1.410       .  A
C1245      C1253   1.385       .  A
C1246      C1254   1.385       .  A
C1246      C1257   1.414       .  A
C1247      C1255   1.388       .  A
C1247      C1258   1.419       .  A
C1248      C1249   1.373       .  A
C1248      H1260   1.082       .  S
C1249      H1261   1.080       .  S
C1250      C1251   1.381       .  A
C1250      H1262   1.083       .  S
C1251      H1263   1.082       .  S
C1252      C1253   1.380       .  A
C1252      H1264   1.082       .  S
C1253      H1265   1.082       .  S
C1254      C1255   1.375       .  A
C1254      H1266   1.081       .  S
C1255      H1267   1.081       .  S
C1256      C1482   1.498       .  S
C1257      C1495   1.497       .  S
C1258      C1455   1.507       .  S
C1259      C1442   1.493       .  S
C1270      C1573   1.404       .  A
C1270      C1577   1.411       .  A
C1270      C1378   1.468       .  S
C1271      C1572   1.404   1_554  A
C1271      C1272   1.400       .  A
C1271      H1578   1.083       .  S
C1272      C1273   1.401       .  A
C1272      C1432   1.490       .  S
C1273      C1274   1.399       .  A
C1273      H1277   1.085       .  S
C1274      C1275   1.409   1_554  A
C1274      C1445   1.491       .  S
C1275      C1572   1.411       .  A
C1275      H1580   1.083       .  S
H1276      C1573   1.083       .  S
H1278      C1577   1.083       .  S
C1279      C1582   1.414       .  A
C1279      C1586   1.415       .  A
C1279      C1375   1.489       .  S
C1280      C1581   1.414   1_554  A
C1280      C1281   1.401       .  A
C1280      H1587   1.083   1_554  S
C1281      C1282   1.396       .  A
C1281      C1422   1.493       .  S
C1282      C1283   1.399       .  A
C1282      H1286   1.085       .  S
C1283      C1284   1.409       .  A
C1283      C1415   1.485       .  S
C1284      C1581   1.415   1_554  A
C1284      H1589   1.083       .  S
H1285      C1582   1.083       .  S
H1287      C1586   1.083       .  S
C1288      C1289   1.410       .  A
C1288      C1293   1.414       .  A
C1288      C1386   1.489       .  S
C1289      C1290   1.410       .  A
C1289      H1294   1.082   1_545  S
C1290      C1291   1.410       .  A
C1290      C1395   1.499       .  S
C1291      C1292   1.400       .  A
C1291      H1295   1.084       .  S
C1292      C1293   1.402       .  A
C1292      C1402   1.500       .  S
C1293      H1296   1.083       .  S
N1297      C1302   1.354       .  A
N1297      H1329   1.039       .  S
N1298      C1305   1.351       .  A
N1298      C1306   1.351       .  A
N1299      C1304   1.354       .  A
N1299      H1330   1.040       .  S
N1300      C1307   1.349       .  A
N1300      C1308   1.349       .  A
C1301      C1309   1.385       .  A
C1301      C1317   1.414       .  A
C1302      C1318   1.419       .  A
C1302      C1310   1.389       .  A
C1303      C1311   1.390       .  A
C1303      C1320   1.418       .  A
C1304      C1319   1.410       .  A
C1304      C1312   1.384       .  A
C1305      C1317   1.418   1_655  A
C1305      C1313   1.386       .  A
C1306      C1320   1.419       .  A
C1306      C1314   1.386       .  A
C1307      C1315   1.386       .  A
C1307      C1318   1.414       .  A
C1308      C1316   1.386       .  A
C1308      C1319   1.414       .  A
C1309      H1321   1.083       .  S
C1310      H1322   1.082       .  S
C1311      H1323   1.082       .  S
C1312      H1324   1.083       .  S
C1313      C1314   1.376       .  A
C1313      H1325   1.081       .  S
C1314      H1326   1.082       .  S
C1315      C1316   1.374       .  A
C1315      H1327   1.082       .  S
C1316      H1328   1.081       .  S
C1317      C1502   1.499   1_455  S
C1318      C1425   1.492       .  S
C1319      C1435   1.493       .  S
C1320      C1405   1.496       .  S
N1331      C1336   1.355       .  A
N1331      C1939   1.351       .  A
N1331      H1363   1.039       .  S
N1332      C1339   1.355       .  A
N1332      C1340   1.352       .  A
N1333      C1338   1.358       .  A
N1333      C1337   1.356       .  A
N1333      H1364   1.039       .  S
N1334      C1341   1.350       .  A
N1334      C1342   1.349       .  A
C1335      C1947   1.384       .  A
C1335      C1351   1.413       .  A
C1335      N1935   1.351       .  A
C1336      C1352   1.424       .  A
C1336      C1344   1.390       .  A
C1337      C1345   1.387       .  A
C1337      C1958   1.421       .  A
C1338      C1353   1.425       .  A
C1338      C1346   1.387       .  A
C1339      C1351   1.411       .  A
C1339      C1347   1.383       .  A
C1340      C1354   1.421       .  A
C1340      C1348   1.389       .  A
C1341      C1349   1.387       .  A
C1341      C1352   1.417       .  A
C1342      C1350   1.386       .  A
C1342      C1353   1.414       .  A
C1343      C1939   1.384       .  A
C1343      C1344   1.380       .  A
C1343      H1959   1.082       .  S
C1344      H1356   1.082       .  S
C1345      C1346   1.371       .  A
C1345      H1357   1.077       .  S
C1346      H1358   1.082       .  S
C1347      C1348   1.373       .  A
C1347      H1359   1.082       .  S
C1348      H1360   1.082       .  S
C1349      C1350   1.382       .  A
C1349      H1361   1.082       .  S
C1350      H1362   1.082       .  S
C1351      C1462   1.497       .  S
C1352      C1412   1.504       .  S
C1353      C1472   1.506       .  S
C1354      C1941   1.421       .  A
C1354      C1392   1.498       .  S
H1355      C1947   1.082       .  S
O1365      C1386   1.269       .  A
O1366      C1375   1.271       .  A
O1366     Ni1389   1.924       .  S
O1367     Ni1371   1.903       .  S
O1367     Ni1993   1.915   1_545  S
O1367      H1994   0.965   1_545  S
C1368      O1385   1.276       .  A
C1368      O1377   1.278       .  A
O1369      C1375   1.271       .  A
O1370      C1372   1.265       .  A
O1370     Ni1388   1.897       .  S
Ni1371     O1374   1.916       .  S
Ni1371     O1376   1.899       .  S
C1372      O1382   1.275       .  A
O1373      C1379   1.280       .  A
O1373     Ni1993   1.938   1_545  S
O1374      C1379   1.277       .  A
O1376      C1378   1.266       .  A
O1377     Ni1388   1.928       .  S
C1378      O1384   1.271       .  A
H1380      O1381   0.968   1_455  S
O1381     Ni1383   1.914       .  S
O1381     Ni1388   1.905       .  S
O1382     Ni1383   1.944       .  S
Ni1383     O1991   1.925       .  S
Ni1383     O1385   1.927       .  S
O1384     Ni1993   1.936   1_545  S
C1386      O1387   1.271       .  A
O1387     Ni1987   1.925   1_545  S
Ni1389     O1977   1.938       .  S
Ni1389     O1988   1.936       .  S
Ni1389     O1971   1.915       .  S
H1390      O1971   0.965       .  S
C1391      C1392   1.410   1_545  A
C1391      C1396   1.393       .  A
C1391     Br1398   1.932       .  S
C1392      C1393   1.415       .  A
C1393      C1394   1.417       .  A
C1393     Br2004   1.930       .  S
C1394      C1395   1.418   1_565  A
C1394     Br1399   1.924       .  S
C1395      C1396   1.406       .  A
C1396     Br1397   1.918       .  S
Br1400     C1997   1.930       .  S
C1401      C1402   1.416       .  A
C1401      C1406   1.410       .  A
C1402      C1403   1.415       .  A
C1403      C1404   1.404       .  A
C1403     Br1410   1.917       .  S
C1404      C1405   1.406       .  A
C1404     Br1409   1.932       .  S
C1405      C1406   1.413       .  A
C1411      C1412   1.418       .  A
C1411      C1416   1.413       .  A
C1411     Br1418   1.928       .  S
C1412      C1413   1.415       .  A
C1413      C1414   1.406       .  A
C1413     Br1420   1.929       .  S
C1414      C1415   1.408       .  A
C1414     Br1419   1.930   1_554  S
C1415      C1416   1.407       .  A
C1416     Br1417   1.926       .  S
C1421      C1422   1.416       .  A
C1421      C1426   1.408       .  A
C1422      C1423   1.415       .  A
C1423      C1424   1.403       .  A
C1423     Br1430   1.926       .  S
C1424      C1425   1.408       .  A
C1424     Br1429   1.932       .  S
C1425      C1426   1.412       .  A
C1431      C1432   1.411       .  A
C1431      C1436   1.400       .  A
C1431     Br1438   1.937       .  S
C1432      C1433   1.419       .  A
C1433      C1434   1.412       .  A
C1433     Br1742   1.930   1_554  S
C1434      C1435   1.411       .  A
C1435      C1436   1.413       .  A
C1436     Br1437   1.931       .  S
Br1440     C1735   1.930       .  S
C1441      C1442   1.410       .  A
C1441      C1446   1.410       .  A
C1441     Br1448   1.928       .  S
C1442      C1443   1.408       .  A
C1443      C1444   1.409       .  A
C1443     Br1450   1.928       .  S
C1444      C1445   1.415       .  A
C1444     Br1449   1.930   1_554  S
C1445      C1446   1.413       .  A
C1446     Br1447   1.928       .  S
C1451      C1452   1.402       .  A
C1451      C1456   1.399       .  A
C1451     Br1458   1.934       .  S
C1452      C1453   1.405       .  A
C1453      C1454   1.414       .  A
C1453     Br1460   1.924       .  S
C1454      C1455   1.422       .  A
C1454     Br1459   1.930       .  S
C1455      C1456   1.419       .  A
C1456     Br1457   1.930       .  S
C1461      C1462   1.400   1_545  A
C1461      C1466   1.395       .  A
C1461     Br1468   1.939       .  S
C1462      C1463   1.411       .  A
C1463      C1464   1.424       .  A
C1463     Br1470   1.927       .  S
C1464      C1465   1.427   1_565  A
C1464     Br1469   1.930       .  S
C1465      C1466   1.426       .  A
C1466     Br1467   1.923       .  S
C1471      C1472   1.418       .  A
C1471      C1476   1.412       .  A
C1471     Br2082   1.929       .  S
C1472      C1473   1.416       .  A
C1473      C1474   1.407       .  A
C1473     Br1480   1.927       .  S
C1474      C1475   1.406       .  A
C1474     Br1479   1.928   1_554  S
C1475      C1476   1.407       .  A
C1476     Br1477   1.925       .  S
Br1478     C2075   1.929       .  S
C1481      C1482   1.411       .  A
C1481      C1486   1.405       .  A
C1481     Br1488   1.935       .  S
C1482      C1483   1.412       .  A
C1483      C1484   1.411       .  A
C1483     Br1490   1.931       .  S
C1484      C1485   1.417       .  A
C1484     Br1489   1.931       .  S
C1485      C1486   1.416       .  A
C1486     Br1487   1.928       .  S
C1491      C1492   1.418       .  A
C1491      C1496   1.405       .  A
C1491     Br1498   1.934       .  S
C1492      C1493   1.418       .  A
C1493      C1494   1.413       .  A
C1493     Br1500   1.925       .  S
C1494      C1495   1.411       .  A
C1494     Br1499   1.932       .  S
C1495      C1496   1.409       .  A
C1496     Br1497   1.930       .  S
C1501      C1502   1.413       .  A
C1501      C1506   1.401       .  A
C1501     Br1508   1.933       .  S
C1502      C1503   1.412   1_655  A
C1503      C1504   1.415   1_455  A
C1503     Br1510   1.930       .  S
C1504      C1505   1.420       .  A
C1504     Br1509   1.930   1_655  S
C1505      C1506   1.411       .  A
C1506     Br1507   1.935       .  S
C1511      C1512   1.407       .  A
C1511      C1516   1.412       .  A
C1511      C1674   1.470       .  S
C1512      C1513   1.401       .  A
C1512      H1517   1.083       .  S
C1513      C1514   1.400       .  A
C1513      C1807   1.496       .  S
C1514      C1515   1.403       .  A
C1514      H1518   1.083       .  S
C1515      C1516   1.411       .  A
C1515      C1794   1.504       .  S
C1516      H1519   1.082       .  S
C1520      C1521   1.411       .  A
C1520      C1525   1.414       .  A
C1520      C1670   1.485   1_554  S
C1521      H1526   1.083       .  S
C1522      C1523   1.400       .  A
C1522      C1787   1.497       .  S
C1523      C1524   1.402       .  A
C1523      H1527   1.085       .  S
C1524      C1777   1.486       .  S
C1525      H1528   1.083       .  S
C1529      C1530   1.417       .  A
C1529      C1534   1.407       .  A
C1529      C1681   1.485       .  S
C1530      C1531   1.423       .  A
C1530      H1535   1.080   1_545  S
C1531      C1532   1.411       .  A
C1531      C1767   1.520       .  S
C1532      C1533   1.400       .  A
C1532      H1536   1.082       .  S
C1533      C1534   1.389       .  A
C1533      C1754   1.481       .  S
C1534      H1537   1.084       .  S
N1538      C1543   1.355       .  A
N1538      C1542   1.356       .  A
N1538      H1570   1.040       .  S
N1539      C1546   1.347       .  A
N1539      C1547   1.349       .  A
N1540      C1545   1.353       .  A
N1540      C1544   1.352       .  A
N1540      H1571   1.042       .  S
N1541      C1548   1.351       .  A
N1541      C1549   1.352       .  A
C1542      C1550   1.387       .  A
C1542      C1558   1.421       .  A
C1543      C1559   1.422       .  A
C1543      C1551   1.389       .  A
C1544      C1552   1.387       .  A
C1544      C1561   1.415       .  A
C1545      C1560   1.417       .  A
C1545      C1553   1.388       .  A
C1546      C1558   1.411       .  A
C1546      C1554   1.387       .  A
C1547      C1561   1.410       .  A
C1547      C1555   1.385       .  A
C1548      C1556   1.385       .  A
C1548      C1559   1.414       .  A
C1549      C1557   1.388       .  A
C1549      C1560   1.419       .  A
C1550      C1551   1.373       .  A
C1550      H1562   1.082       .  S
C1551      H1563   1.080       .  S
C1552      C1553   1.381       .  A
C1552      H1564   1.083       .  S
C1553      H1565   1.082       .  S
C1554      C1555   1.380       .  A
C1554      H1566   1.082       .  S
C1555      H1567   1.082       .  S
C1556      C1557   1.375       .  A
C1556      H1568   1.081       .  S
C1557      H1569   1.081       .  S
C1558      C1784   1.498       .  S
C1559      C1797   1.497       .  S
C1560      C1757   1.507       .  S
C1561      C1744   1.493       .  S
C1572      C1680   1.468       .  S
C1573      C1574   1.400       .  A
C1574      C1575   1.401       .  A
C1574      C1734   1.490       .  S
C1575      C1576   1.399       .  A
C1575      H1579   1.085       .  S
C1576      C1577   1.409       .  A
C1576      C1747   1.491       .  S
C1581      C1677   1.489       .  S
C1582      C1583   1.401       .  A
C1583      C1584   1.396       .  A
C1583      C1724   1.493       .  S
C1584      C1585   1.399       .  A
C1584      H1588   1.085       .  S
C1585      C1586   1.409       .  A
C1585      C1717   1.485       .  S
C1590      C1591   1.410       .  A
C1590      C1595   1.414       .  A
C1590      C1688   1.489       .  S
C1591      C1592   1.410       .  A
C1591      H1596   1.082   1_545  S
C1592      C1593   1.410       .  A
C1592      C1697   1.499       .  S
C1593      C1594   1.400       .  A
C1593      H1597   1.084       .  S
C1594      C1595   1.402       .  A
C1594      C1704   1.500       .  S
C1595      H1598   1.083       .  S
N1599      C1604   1.354       .  A
N1599      H1631   1.039       .  S
N1600      C1607   1.351       .  A
N1600      C1608   1.351       .  A
N1601      C1606   1.354       .  A
N1601      H1632   1.040       .  S
N1602      C1609   1.349       .  A
N1602      C1610   1.349       .  A
C1603      C1611   1.385       .  A
C1603      C1619   1.414       .  A
C1604      C1620   1.419       .  A
C1604      C1612   1.389       .  A
C1605      C1613   1.390       .  A
C1605      C1622   1.418       .  A
C1606      C1621   1.410       .  A
C1606      C1614   1.384       .  A
C1607      C1619   1.418   1_655  A
C1607      C1615   1.386       .  A
C1608      C1622   1.419       .  A
C1608      C1616   1.386       .  A
C1609      C1617   1.386       .  A
C1609      C1620   1.414       .  A
C1610      C1618   1.386       .  A
C1610      C1621   1.414       .  A
C1611      H1623   1.083       .  S
C1612      H1624   1.082       .  S
C1613      H1625   1.082       .  S
C1614      H1626   1.083       .  S
C1615      C1616   1.376       .  A
C1615      H1627   1.081       .  S
C1616      H1628   1.082       .  S
C1617      C1618   1.374       .  A
C1617      H1629   1.082       .  S
C1618      H1630   1.081       .  S
C1619      C1804   1.499   1_455  S
C1620      C1727   1.492       .  S
C1621      C1737   1.493       .  S
C1622      C1707   1.496       .  S
N1633      C1638   1.355       .  A
N1633      C2241   1.351       .  A
N1633      H1665   1.039       .  S
N1634      C1641   1.355       .  A
N1634      C1642   1.352       .  A
N1635      C1640   1.358       .  A
N1635      C1639   1.356       .  A
N1635      H1666   1.039       .  S
N1636      C1643   1.350       .  A
N1636      C1644   1.349       .  A
C1637      C2249   1.384       .  A
C1637      C1653   1.413       .  A
C1637      N2237   1.351       .  A
C1638      C1654   1.424       .  A
C1638      C1646   1.390       .  A
C1639      C1647   1.387       .  A
C1639      C2260   1.421       .  A
C1640      C1655   1.425       .  A
C1640      C1648   1.387       .  A
C1641      C1653   1.411       .  A
C1641      C1649   1.383       .  A
C1642      C1656   1.421       .  A
C1642      C1650   1.389       .  A
C1643      C1651   1.387       .  A
C1643      C1654   1.417       .  A
C1644      C1652   1.386       .  A
C1644      C1655   1.414       .  A
C1645      C2241   1.384       .  A
C1645      C1646   1.380       .  A
C1645      H2261   1.082       .  S
C1646      H1658   1.082       .  S
C1647      C1648   1.371       .  A
C1647      H1659   1.077       .  S
C1648      H1660   1.082       .  S
C1649      C1650   1.373       .  A
C1649      H1661   1.082       .  S
C1650      H1662   1.082       .  S
C1651      C1652   1.382       .  A
C1651      H1663   1.082       .  S
C1652      H1664   1.082       .  S
C1653      C1764   1.497       .  S
C1654      C1714   1.504       .  S
C1655      C1774   1.506       .  S
C1656      C2243   1.421       .  A
C1656      C1694   1.498       .  S
H1657      C2249   1.082       .  S
O1667      C1688   1.269       .  A
O1668      C1677   1.271       .  A
O1668     Ni1691   1.924       .  S
O1669     Ni1673   1.903       .  S
O1669     Ni2295   1.915   1_545  S
O1669      H2296   0.965   1_545  S
C1670      O1687   1.276       .  A
C1670      O1679   1.278       .  A
O1671      C1677   1.271       .  A
O1672      C1674   1.265       .  A
O1672     Ni1690   1.897       .  S
Ni1673     O1676   1.916       .  S
Ni1673     O1678   1.899       .  S
C1674      O1684   1.275       .  A
O1675      C1681   1.280       .  A
O1675     Ni2295   1.938   1_545  S
O1676      C1681   1.277       .  A
O1678      C1680   1.266       .  A
O1679     Ni1690   1.928       .  S
C1680      O1686   1.271       .  A
H1682      O1683   0.968   1_455  S
O1683     Ni1685   1.914       .  S
O1683     Ni1690   1.905       .  S
O1684     Ni1685   1.944       .  S
Ni1685     O2293   1.925       .  S
Ni1685     O1687   1.927       .  S
O1686     Ni2295   1.936   1_545  S
C1688      O1689   1.271       .  A
O1689     Ni2289   1.925   1_545  S
Ni1691     O2279   1.938       .  S
Ni1691     O2290   1.936       .  S
Ni1691     O2273   1.915       .  S
H1692      O2273   0.965       .  S
C1693      C1694   1.410   1_545  A
C1693      C1698   1.393       .  A
C1693     Br1700   1.932       .  S
C1694      C1695   1.415       .  A
C1695      C1696   1.417       .  A
C1695     Br2306   1.930       .  S
C1696      C1697   1.418   1_565  A
C1696     Br1701   1.924       .  S
C1697      C1698   1.406       .  A
C1698     Br1699   1.918       .  S
Br1702     C2299   1.930       .  S
C1703      C1704   1.416       .  A
C1703      C1708   1.410       .  A
C1704      C1705   1.415       .  A
C1705      C1706   1.404       .  A
C1705     Br1712   1.917       .  S
C1706      C1707   1.406       .  A
C1706     Br1711   1.932       .  S
C1707      C1708   1.413       .  A
C1713      C1714   1.418       .  A
C1713      C1718   1.413       .  A
C1713     Br1720   1.928       .  S
C1714      C1715   1.415       .  A
C1715      C1716   1.406       .  A
C1715     Br1722   1.929       .  S
C1716      C1717   1.408       .  A
C1716     Br1721   1.930       .  S
C1717      C1718   1.407       .  A
C1718     Br1719   1.926       .  S
C1723      C1724   1.416       .  A
C1723      C1728   1.408       .  A
C1724      C1725   1.415       .  A
C1725      C1726   1.403       .  A
C1725     Br1732   1.926       .  S
C1726      C1727   1.408       .  A
C1726     Br1731   1.932       .  S
C1727      C1728   1.412       .  A
C1733      C1734   1.411       .  A
C1733      C1738   1.400       .  A
C1733     Br1740   1.937       .  S
C1734      C1735   1.419       .  A
C1735      C1736   1.412       .  A
C1736      C1737   1.411       .  A
C1737      C1738   1.413       .  A
C1738     Br1739   1.931       .  S
C1743      C1744   1.410       .  A
C1743      C1748   1.410       .  A
C1743     Br1750   1.928       .  S
C1744      C1745   1.408       .  A
C1745      C1746   1.409       .  A
C1745     Br1752   1.928       .  S
C1746      C1747   1.415       .  A
C1746     Br1751   1.930       .  S
C1747      C1748   1.413       .  A
C1748     Br1749   1.928       .  S
C1753      C1754   1.402       .  A
C1753      C1758   1.399       .  A
C1753     Br1760   1.934       .  S
C1754      C1755   1.405       .  A
C1755      C1756   1.414       .  A
C1755     Br1762   1.924       .  S
C1756      C1757   1.422       .  A
C1756     Br1761   1.930       .  S
C1757      C1758   1.419       .  A
C1758     Br1759   1.930       .  S
C1763      C1764   1.400   1_545  A
C1763      C1768   1.395       .  A
C1763     Br1770   1.939       .  S
C1764      C1765   1.411       .  A
C1765      C1766   1.424       .  A
C1765     Br1772   1.927       .  S
C1766      C1767   1.427   1_565  A
C1766     Br1771   1.930       .  S
C1767      C1768   1.426       .  A
C1768     Br1769   1.923       .  S
C1773      C1774   1.418       .  A
C1773      C1778   1.412       .  A
C1773     Br2384   1.929       .  S
C1774      C1775   1.416       .  A
C1775      C1776   1.407       .  A
C1775     Br1782   1.927       .  S
C1776      C1777   1.406       .  A
C1776     Br1781   1.928       .  S
C1777      C1778   1.407       .  A
C1778     Br1779   1.925       .  S
Br1780     C2377   1.929       .  S
C1783      C1784   1.411       .  A
C1783      C1788   1.405       .  A
C1783     Br1790   1.935       .  S
C1784      C1785   1.412       .  A
C1785      C1786   1.411       .  A
C1785     Br1792   1.931       .  S
C1786      C1787   1.417       .  A
C1786     Br1791   1.931       .  S
C1787      C1788   1.416       .  A
C1788     Br1789   1.928       .  S
C1793      C1794   1.418       .  A
C1793      C1798   1.405       .  A
C1793     Br1800   1.934       .  S
C1794      C1795   1.418       .  A
C1795      C1796   1.413       .  A
C1795     Br1802   1.925       .  S
C1796      C1797   1.411       .  A
C1796     Br1801   1.932       .  S
C1797      C1798   1.409       .  A
C1798     Br1799   1.930       .  S
C1803      C1804   1.413       .  A
C1803      C1808   1.401       .  A
C1803     Br1810   1.933       .  S
C1804      C1805   1.412   1_655  A
C1805      C1806   1.415   1_455  A
C1805     Br1812   1.930       .  S
C1806      C1807   1.420       .  A
C1806     Br1811   1.930   1_655  S
C1807      C1808   1.411       .  A
C1808     Br1809   1.935       .  S
C1813      C1814   1.407       .  A
C1813      C1818   1.412       .  A
C1813      C1976   1.470       .  S
C1814      C1815   1.401       .  A
C1814      H1819   1.083       .  S
C1815      C1816   1.400       .  A
C1815      C2109   1.496       .  S
C1816      C1817   1.403       .  A
C1816      H1820   1.083       .  S
C1817      C1818   1.411       .  A
C1817      C2096   1.504       .  S
C1818      H1821   1.082       .  S
C1822      C1823   1.411       .  A
C1822      C1827   1.414       .  A
C1822      C1972   1.485       .  S
C1823      C2126   1.403       .  A
C1823      H1828   1.083       .  S
C1824      C2125   1.403       .  A
C1824      C1825   1.400       .  A
C1824      C2089   1.497       .  S
C1825      C1826   1.402       .  A
C1825      H1829   1.085       .  S
C1826      C2129   1.408       .  A
C1826      C2079   1.486       .  S
C1827      C2128   1.408       .  A
C1827      H1830   1.083       .  S
C1831      C1832   1.417       .  A
C1831      C1836   1.407       .  A
C1831      C1983   1.485       .  S
C1832      C1833   1.423       .  A
C1832      H1837   1.080       .  S
C1833      C1834   1.411       .  A
C1833      C2069   1.520       .  S
C1834      C1835   1.400       .  A
C1834      H1838   1.082       .  S
C1835      C1836   1.389       .  A
C1835      C2056   1.481       .  S
C1836      H1839   1.084       .  S
N1840      C1845   1.355       .  A
N1840      C1844   1.356       .  A
N1840      H1872   1.040       .  S
N1841      C1848   1.347       .  A
N1841      C1849   1.349       .  A
N1842      C1847   1.353       .  A
N1842      C1846   1.352       .  A
N1842      H1873   1.042       .  S
N1843      C1850   1.351       .  A
N1843      C1851   1.352       .  A
C1844      C1852   1.387       .  A
C1844      C1860   1.421       .  A
C1845      C1861   1.422       .  A
C1845      C1853   1.389       .  A
C1846      C1854   1.387       .  A
C1846      C1863   1.415       .  A
C1847      C1862   1.417       .  A
C1847      C1855   1.388       .  A
C1848      C1860   1.411       .  A
C1848      C1856   1.387       .  A
C1849      C1863   1.410       .  A
C1849      C1857   1.385       .  A
C1850      C1858   1.385       .  A
C1850      C1861   1.414       .  A
C1851      C1859   1.388       .  A
C1851      C1862   1.419       .  A
C1852      C1853   1.373       .  A
C1852      H1864   1.082       .  S
C1853      H1865   1.080       .  S
C1854      C1855   1.381       .  A
C1854      H1866   1.083       .  S
C1855      H1867   1.082       .  S
C1856      C1857   1.380       .  A
C1856      H1868   1.082       .  S
C1857      H1869   1.082       .  S
C1858      C1859   1.375       .  A
C1858      H1870   1.081       .  S
C1859      H1871   1.081       .  S
C1860      C2086   1.498       .  S
C1861      C2099   1.497       .  S
C1862      C2059   1.507       .  S
C1863      C2046   1.493       .  S
C1874      C2177   1.404       .  A
C1874      C2181   1.411       .  A
C1874      C1982   1.468       .  S
C1875      C2176   1.404   1_554  A
C1875      C1876   1.400       .  A
C1875      H2182   1.083       .  S
C1876      C1877   1.401       .  A
C1876      C2036   1.489       .  S
C1877      C1878   1.399       .  A
C1877      H1881   1.085       .  S
C1878      C1879   1.409   1_554  A
C1878      C2049   1.491       .  S
C1879      C2176   1.411       .  A
C1879      H2184   1.083       .  S
H1880      C2177   1.083       .  S
H1882      C2181   1.083       .  S
C1883      C2186   1.414       .  A
C1883      C2190   1.415       .  A
C1883      C1979   1.489       .  S
C1884      C2185   1.414   1_554  A
C1884      C1885   1.401       .  A
C1884      H2191   1.083   1_554  S
C1885      C1886   1.396       .  A
C1885      C2026   1.493       .  S
C1886      C1887   1.399       .  A
C1886      H1890   1.085       .  S
C1887      C1888   1.409       .  A
C1887      C2019   1.485       .  S
C1888      C2185   1.415   1_554  A
C1888      H2193   1.083       .  S
H1889      C2186   1.083       .  S
H1891      C2190   1.083       .  S
C1892      C1893   1.410       .  A
C1892      C1897   1.414       .  A
C1892      C1990   1.489       .  S
C1893      C1894   1.410       .  A
C1893      H1898   1.082       .  S
C1894      C1895   1.410       .  A
C1894      C1999   1.499       .  S
C1895      C1896   1.400       .  A
C1895      H1899   1.084       .  S
C1896      C1897   1.402       .  A
C1896      C2006   1.500       .  S
C1897      H1900   1.083       .  S
N1901      C1906   1.354       .  A
N1901      H1933   1.039       .  S
N1902      C1909   1.351       .  A
N1902      C1910   1.351       .  A
N1903      C1908   1.354       .  A
N1903      H1934   1.040       .  S
N1904      C1911   1.349       .  A
N1904      C1912   1.349       .  A
C1905      C1913   1.385       .  A
C1905      C1921   1.414       .  A
C1906      C1922   1.419       .  A
C1906      C1914   1.389       .  A
C1907      C1915   1.390       .  A
C1907      C1924   1.418       .  A
C1908      C1923   1.410       .  A
C1908      C1916   1.384       .  A
C1909      C1921   1.418   1_655  A
C1909      C1917   1.386       .  A
C1910      C1924   1.419       .  A
C1910      C1918   1.386       .  A
C1911      C1919   1.386       .  A
C1911      C1922   1.414       .  A
C1912      C1920   1.386       .  A
C1912      C1923   1.414       .  A
C1913      H1925   1.083       .  S
C1914      H1926   1.082       .  S
C1915      H1927   1.082       .  S
C1916      H1928   1.083       .  S
C1917      C1918   1.376       .  A
C1917      H1929   1.081       .  S
C1918      H1930   1.082       .  S
C1919      C1920   1.374       .  A
C1919      H1931   1.082       .  S
C1920      H1932   1.081       .  S
C1921      C2106   1.498   1_455  S
C1922      C2029   1.492       .  S
C1923      C2039   1.493       .  S
C1924      C2009   1.496       .  S
N1935      C1940   1.355       .  A
N1935      H1967   1.039       .  S
N1936      C1943   1.355       .  A
N1936      C1944   1.352       .  A
N1937      C1942   1.358       .  A
N1937      C1941   1.356       .  A
N1937      H1968   1.039       .  S
N1938      C1945   1.350       .  A
N1938      C1946   1.349       .  A
C1939      C1955   1.413       .  A
C1940      C1956   1.424       .  A
C1940      C1948   1.390       .  A
C1941      C1949   1.387       .  A
C1942      C1957   1.425       .  A
C1942      C1950   1.387       .  A
C1943      C1955   1.411       .  A
C1943      C1951   1.383       .  A
C1944      C1958   1.421       .  A
C1944      C1952   1.389       .  A
C1945      C1953   1.387   1_565  A
C1945      C1956   1.417       .  A
C1946      C1954   1.386   1_565  A
C1946      C1957   1.414       .  A
C1947      C1948   1.380       .  A
C1948      H1960   1.082       .  S
C1949      C1950   1.371       .  A
C1949      H1961   1.077       .  S
C1950      H1962   1.082       .  S
C1951      C1952   1.373       .  A
C1951      H1963   1.082       .  S
C1952      H1964   1.082       .  S
C1953      C1954   1.382       .  A
C1953      H1965   1.082       .  S
C1954      H1966   1.082       .  S
C1955      C2066   1.497       .  S
C1956      C2016   1.504       .  S
C1957      C2076   1.506       .  S
C1958      C1996   1.498       .  S
O1969      C1990   1.269       .  A
O1970      C1979   1.271       .  A
O1970     Ni1993   1.924       .  S
O1971     Ni1975   1.903       .  S
C1972      O1989   1.276       .  A
C1972      O1981   1.278       .  A
O1973      C1979   1.271       .  A
O1974      C1976   1.265       .  A
O1974     Ni1992   1.897       .  S
Ni1975     O1978   1.916       .  S
Ni1975     O1980   1.899       .  S
C1976      O1986   1.275       .  A
O1977      C1983   1.280       .  A
O1978      C1983   1.277       .  A
O1980      C1982   1.266       .  A
O1981     Ni1992   1.928       .  S
C1982      O1988   1.271       .  A
H1984      O1985   0.968   1_455  S
O1985     Ni1987   1.914       .  S
O1985     Ni1992   1.905       .  S
O1986     Ni1987   1.944       .  S
Ni1987     O1989   1.927       .  S
C1990      O1991   1.271       .  A
C1995      C1996   1.410       .  A
C1995      C2000   1.393       .  A
C1995     Br2002   1.932       .  S
C1996      C1997   1.415       .  A
C1997      C1998   1.417       .  A
C1998      C1999   1.418       .  A
C1998     Br2003   1.924       .  S
C1999      C2000   1.406       .  A
C2000     Br2001   1.918       .  S
C2005      C2006   1.416       .  A
C2005      C2010   1.410       .  A
C2006      C2007   1.415       .  A
C2007      C2008   1.403       .  A
C2007     Br2014   1.917       .  S
C2008      C2009   1.406       .  A
C2008     Br2013   1.932       .  S
C2009      C2010   1.413       .  A
C2015      C2016   1.418       .  A
C2015      C2020   1.413       .  A
C2015     Br2022   1.928   1_565  S
C2016      C2017   1.415       .  A
C2017      C2018   1.406       .  A
C2017     Br2024   1.928       .  S
C2018      C2019   1.408       .  A
C2018     Br2023   1.930   1_554  S
C2019      C2020   1.407       .  A
C2020     Br2021   1.926   1_565  S
C2025      C2026   1.416       .  A
C2025      C2030   1.408       .  A
C2026      C2027   1.415       .  A
C2027      C2028   1.403       .  A
C2027     Br2034   1.926       .  S
C2028      C2029   1.408       .  A
C2028     Br2033   1.932       .  S
C2029      C2030   1.412       .  A
C2035      C2036   1.411       .  A
C2035      C2040   1.400       .  A
C2035     Br2042   1.937       .  S
C2036      C2037   1.419       .  A
C2037      C2038   1.412       .  A
C2037     Br2346   1.930   1_554  S
C2038      C2039   1.411       .  A
C2039      C2040   1.413       .  A
C2040     Br2041   1.931       .  S
Br2044     C2339   1.930       .  S
C2045      C2046   1.410       .  A
C2045      C2050   1.410       .  A
C2045     Br2052   1.928       .  S
C2046      C2047   1.408       .  A
C2047      C2048   1.409       .  A
C2047     Br2054   1.928       .  S
C2048      C2049   1.415       .  A
C2048     Br2053   1.930   1_554  S
C2049      C2050   1.413       .  A
C2050     Br2051   1.928       .  S
C2055      C2056   1.402       .  A
C2055      C2060   1.399       .  A
C2055     Br2062   1.934       .  S
C2056      C2057   1.405       .  A
C2057      C2058   1.414       .  A
C2057     Br2064   1.924       .  S
C2058      C2059   1.422       .  A
C2058     Br2063   1.930       .  S
C2059      C2060   1.419       .  A
C2060     Br2061   1.930       .  S
C2065      C2066   1.400       .  A
C2065      C2070   1.395       .  A
C2065     Br2072   1.939       .  S
C2066      C2067   1.411       .  A
C2067      C2068   1.424       .  A
C2067     Br2074   1.927       .  S
C2068      C2069   1.427       .  A
C2068     Br2073   1.930       .  S
C2069      C2070   1.426       .  A
C2070     Br2071   1.923       .  S
C2075      C2076   1.418   1_545  A
C2075      C2080   1.412   1_545  A
C2076      C2077   1.416       .  A
C2077      C2078   1.407       .  A
C2077     Br2084   1.927       .  S
C2078      C2079   1.406       .  A
C2078     Br2083   1.928   1_554  S
C2079      C2080   1.407       .  A
C2080     Br2081   1.925   1_565  S
C2085      C2086   1.411       .  A
C2085      C2090   1.405       .  A
C2085     Br2092   1.935       .  S
C2086      C2087   1.412       .  A
C2087      C2088   1.411       .  A
C2087     Br2094   1.931       .  S
C2088      C2089   1.417       .  A
C2088     Br2093   1.931       .  S
C2089      C2090   1.416       .  A
C2090     Br2091   1.928       .  S
C2095      C2096   1.418       .  A
C2095      C2100   1.405       .  A
C2095     Br2102   1.934       .  S
C2096      C2097   1.418       .  A
C2097      C2098   1.413       .  A
C2097     Br2104   1.925       .  S
C2098      C2099   1.411       .  A
C2098     Br2103   1.932       .  S
C2099      C2100   1.409       .  A
C2100     Br2101   1.930       .  S
C2105      C2106   1.413       .  A
C2105      C2110   1.401       .  A
C2105     Br2112   1.933       .  S
C2106      C2107   1.412   1_655  A
C2107      C2108   1.415   1_455  A
C2107     Br2114   1.930       .  S
C2108      C2109   1.420       .  A
C2108     Br2113   1.930   1_655  S
C2109      C2110   1.411       .  A
C2110     Br2111   1.935       .  S
C2115      C2116   1.407       .  A
C2115      C2120   1.412       .  A
C2115      C2278   1.470       .  S
C2116      C2117   1.401       .  A
C2116      H2121   1.083       .  S
C2117      C2118   1.400       .  A
C2117      C2411   1.496       .  S
C2118      C2119   1.403       .  A
C2118      H2122   1.083       .  S
C2119      C2120   1.411       .  A
C2119      C2398   1.504       .  S
C2120      H2123   1.082       .  S
C2124      C2125   1.411       .  A
C2124      C2129   1.414       .  A
C2124      C2274   1.485   1_554  S
C2125      H2130   1.083       .  S
C2126      C2127   1.400       .  A
C2126      C2391   1.497       .  S
C2127      C2128   1.402       .  A
C2127      H2131   1.085       .  S
C2128      C2381   1.486       .  S
C2129      H2132   1.083       .  S
C2133      C2134   1.417       .  A
C2133      C2138   1.407       .  A
C2133      C2285   1.485       .  S
C2134      C2135   1.423       .  A
C2134      H2139   1.080       .  S
C2135      C2136   1.411       .  A
C2135      C2371   1.520       .  S
C2136      C2137   1.400       .  A
C2136      H2140   1.082       .  S
C2137      C2138   1.389       .  A
C2137      C2358   1.481       .  S
C2138      H2141   1.084       .  S
N2142      C2147   1.355       .  A
N2142      C2146   1.356       .  A
N2142      H2174   1.040       .  S
N2143      C2150   1.347       .  A
N2143      C2151   1.349       .  A
N2144      C2149   1.353       .  A
N2144      C2148   1.352       .  A
N2144      H2175   1.042       .  S
N2145      C2152   1.351       .  A
N2145      C2153   1.352       .  A
C2146      C2154   1.387       .  A
C2146      C2162   1.421       .  A
C2147      C2163   1.422       .  A
C2147      C2155   1.389       .  A
C2148      C2156   1.387       .  A
C2148      C2165   1.415       .  A
C2149      C2164   1.417       .  A
C2149      C2157   1.388       .  A
C2150      C2162   1.411       .  A
C2150      C2158   1.387       .  A
C2151      C2165   1.410       .  A
C2151      C2159   1.385       .  A
C2152      C2160   1.385       .  A
C2152      C2163   1.414       .  A
C2153      C2161   1.388       .  A
C2153      C2164   1.419       .  A
C2154      C2155   1.373       .  A
C2154      H2166   1.082       .  S
C2155      H2167   1.080       .  S
C2156      C2157   1.381       .  A
C2156      H2168   1.083       .  S
C2157      H2169   1.082       .  S
C2158      C2159   1.380       .  A
C2158      H2170   1.082       .  S
C2159      H2171   1.082       .  S
C2160      C2161   1.375       .  A
C2160      H2172   1.081       .  S
C2161      H2173   1.081       .  S
C2162      C2388   1.498       .  S
C2163      C2401   1.497       .  S
C2164      C2361   1.507       .  S
C2165      C2348   1.493       .  S
C2176      C2284   1.468       .  S
C2177      C2178   1.400       .  A
C2178      C2179   1.401       .  A
C2178      C2338   1.489       .  S
C2179      C2180   1.399       .  A
C2179      H2183   1.085       .  S
C2180      C2181   1.409       .  A
C2180      C2351   1.491       .  S
C2185      C2281   1.489       .  S
C2186      C2187   1.401       .  A
C2187      C2188   1.396       .  A
C2187      C2328   1.493       .  S
C2188      C2189   1.399       .  A
C2188      H2192   1.085       .  S
C2189      C2190   1.409       .  A
C2189      C2321   1.485       .  S
C2194      C2195   1.410       .  A
C2194      C2199   1.414       .  A
C2194      C2292   1.489       .  S
C2195      C2196   1.410       .  A
C2195      H2200   1.082       .  S
C2196      C2197   1.410       .  A
C2196      C2301   1.499       .  S
C2197      C2198   1.400       .  A
C2197      H2201   1.084       .  S
C2198      C2199   1.402       .  A
C2198      C2308   1.500       .  S
C2199      H2202   1.083       .  S
N2203      C2208   1.354       .  A
N2203      H2235   1.039       .  S
N2204      C2211   1.351       .  A
N2204      C2212   1.351       .  A
N2205      C2210   1.354       .  A
N2205      H2236   1.040       .  S
N2206      C2213   1.349       .  A
N2206      C2214   1.349       .  A
C2207      C2215   1.385       .  A
C2207      C2223   1.414       .  A
C2208      C2224   1.419       .  A
C2208      C2216   1.389       .  A
C2209      C2217   1.390       .  A
C2209      C2226   1.418       .  A
C2210      C2225   1.410       .  A
C2210      C2218   1.384       .  A
C2211      C2223   1.418   1_655  A
C2211      C2219   1.386       .  A
C2212      C2226   1.419       .  A
C2212      C2220   1.386       .  A
C2213      C2221   1.386       .  A
C2213      C2224   1.414       .  A
C2214      C2222   1.386       .  A
C2214      C2225   1.414       .  A
C2215      H2227   1.083       .  S
C2216      H2228   1.082       .  S
C2217      H2229   1.082       .  S
C2218      H2230   1.083       .  S
C2219      C2220   1.376       .  A
C2219      H2231   1.081       .  S
C2220      H2232   1.082       .  S
C2221      C2222   1.374       .  A
C2221      H2233   1.082       .  S
C2222      H2234   1.081       .  S
C2223      C2408   1.498   1_455  S
C2224      C2331   1.492       .  S
C2225      C2341   1.493       .  S
C2226      C2311   1.496       .  S
N2237      C2242   1.355       .  A
N2237      H2269   1.039       .  S
N2238      C2245   1.355       .  A
N2238      C2246   1.352       .  A
N2239      C2244   1.358       .  A
N2239      C2243   1.356       .  A
N2239      H2270   1.039       .  S
N2240      C2247   1.350       .  A
N2240      C2248   1.349       .  A
C2241      C2257   1.413       .  A
C2242      C2258   1.424       .  A
C2242      C2250   1.390       .  A
C2243      C2251   1.387       .  A
C2244      C2259   1.425       .  A
C2244      C2252   1.387       .  A
C2245      C2257   1.411       .  A
C2245      C2253   1.383       .  A
C2246      C2260   1.421       .  A
C2246      C2254   1.389       .  A
C2247      C2255   1.387   1_565  A
C2247      C2258   1.417       .  A
C2248      C2256   1.386   1_565  A
C2248      C2259   1.414       .  A
C2249      C2250   1.380       .  A
C2250      H2262   1.082       .  S
C2251      C2252   1.371       .  A
C2251      H2263   1.077       .  S
C2252      H2264   1.082       .  S
C2253      C2254   1.373       .  A
C2253      H2265   1.082       .  S
C2254      H2266   1.082       .  S
C2255      C2256   1.382       .  A
C2255      H2267   1.082       .  S
C2256      H2268   1.082       .  S
C2257      C2368   1.497       .  S
C2258      C2318   1.504       .  S
C2259      C2378   1.506       .  S
C2260      C2298   1.498       .  S
O2271      C2292   1.269       .  A
O2272      C2281   1.271       .  A
O2272     Ni2295   1.924       .  S
O2273     Ni2277   1.903       .  S
C2274      O2291   1.276       .  A
C2274      O2283   1.278       .  A
O2275      C2281   1.271       .  A
O2276      C2278   1.265       .  A
O2276     Ni2294   1.897       .  S
Ni2277     O2280   1.916       .  S
Ni2277     O2282   1.899       .  S
C2278      O2288   1.275       .  A
O2279      C2285   1.280       .  A
O2280      C2285   1.277       .  A
O2282      C2284   1.266       .  A
O2283     Ni2294   1.928       .  S
C2284      O2290   1.271       .  A
H2286      O2287   0.968   1_455  S
O2287     Ni2289   1.914       .  S
O2287     Ni2294   1.905       .  S
O2288     Ni2289   1.944       .  S
Ni2289     O2291   1.927       .  S
C2292      O2293   1.271       .  A
C2297      C2298   1.410       .  A
C2297      C2302   1.393       .  A
C2297     Br2304   1.932       .  S
C2298      C2299   1.415       .  A
C2299      C2300   1.417       .  A
C2300      C2301   1.418       .  A
C2300     Br2305   1.924       .  S
C2301      C2302   1.406       .  A
C2302     Br2303   1.918       .  S
C2307      C2308   1.416       .  A
C2307      C2312   1.410       .  A
C2308      C2309   1.415       .  A
C2309      C2310   1.403       .  A
C2309     Br2316   1.917       .  S
C2310      C2311   1.406       .  A
C2310     Br2315   1.932       .  S
C2311      C2312   1.413       .  A
C2317      C2318   1.418       .  A
C2317      C2322   1.413       .  A
C2317     Br2324   1.928   1_565  S
C2318      C2319   1.415       .  A
C2319      C2320   1.406       .  A
C2319     Br2326   1.928       .  S
C2320      C2321   1.408       .  A
C2320     Br2325   1.930       .  S
C2321      C2322   1.407       .  A
C2322     Br2323   1.926   1_565  S
C2327      C2328   1.416       .  A
C2327      C2332   1.408       .  A
C2328      C2329   1.415       .  A
C2329      C2330   1.403       .  A
C2329     Br2336   1.926       .  S
C2330      C2331   1.408       .  A
C2330     Br2335   1.932       .  S
C2331      C2332   1.412       .  A
C2337      C2338   1.411       .  A
C2337      C2342   1.400       .  A
C2337     Br2344   1.937       .  S
C2338      C2339   1.419       .  A
C2339      C2340   1.412       .  A
C2340      C2341   1.411       .  A
C2341      C2342   1.413       .  A
C2342     Br2343   1.931       .  S
C2347      C2348   1.410       .  A
C2347      C2352   1.410       .  A
C2347     Br2354   1.928       .  S
C2348      C2349   1.408       .  A
C2349      C2350   1.409       .  A
C2349     Br2356   1.928       .  S
C2350      C2351   1.415       .  A
C2350     Br2355   1.930       .  S
C2351      C2352   1.413       .  A
C2352     Br2353   1.928       .  S
C2357      C2358   1.402       .  A
C2357      C2362   1.399       .  A
C2357     Br2364   1.934       .  S
C2358      C2359   1.405       .  A
C2359      C2360   1.414       .  A
C2359     Br2366   1.924       .  S
C2360      C2361   1.422       .  A
C2360     Br2365   1.930       .  S
C2361      C2362   1.419       .  A
C2362     Br2363   1.930       .  S
C2367      C2368   1.400       .  A
C2367      C2372   1.395       .  A
C2367     Br2374   1.939       .  S
C2368      C2369   1.411       .  A
C2369      C2370   1.424       .  A
C2369     Br2376   1.927       .  S
C2370      C2371   1.427       .  A
C2370     Br2375   1.930       .  S
C2371      C2372   1.426       .  A
C2372     Br2373   1.923       .  S
C2377      C2378   1.418   1_545  A
C2377      C2382   1.412   1_545  A
C2378      C2379   1.416       .  A
C2379      C2380   1.407       .  A
C2379     Br2386   1.927       .  S
C2380      C2381   1.406       .  A
C2380     Br2385   1.928       .  S
C2381      C2382   1.407       .  A
C2382     Br2383   1.925   1_565  S
C2387      C2388   1.411       .  A
C2387      C2392   1.405       .  A
C2387     Br2394   1.935       .  S
C2388      C2389   1.412       .  A
C2389      C2390   1.411       .  A
C2389     Br2396   1.931       .  S
C2390      C2391   1.417       .  A
C2390     Br2395   1.931       .  S
C2391      C2392   1.416       .  A
C2392     Br2393   1.928       .  S
C2397      C2398   1.418       .  A
C2397      C2402   1.405       .  A
C2397     Br2404   1.934       .  S
C2398      C2399   1.418       .  A
C2399      C2400   1.413       .  A
C2399     Br2406   1.925       .  S
C2400      C2401   1.411       .  A
C2400     Br2405   1.932       .  S
C2401      C2402   1.409       .  A
C2402     Br2403   1.930       .  S
C2407      C2408   1.413       .  A
C2407      C2412   1.401       .  A
C2407     Br2414   1.933       .  S
C2408      C2409   1.412   1_655  A
C2409      C2410   1.415   1_455  A
C2409     Br2416   1.930       .  S
C2410      C2411   1.420       .  A
C2410     Br2415   1.930   1_655  S
C2411      C2412   1.411       .  A
C2412     Br2413   1.935       .  S
