geometry optimzed in LAMMPS
_audit_creation_date              2020-11-30 
_audit_creation_method            'lammps2cif' 
_symmetry_space_group_name_H-M    'P1' 
_symmetry_Int_Tables_number       1 
_symmetry_cell_setting            triclinic 
loop_ 
_symmetry_equiv_pos_as_xyz 
  x,y,z 
_cell_length_a                    38.25151921 
_cell_length_b                    40.28916307510083 
_cell_length_c                    33.2607974068632 
_cell_angle_alpha                 89.9937568320649 
_cell_angle_beta                  90.00667247276077 
_cell_angle_gamma                 100.7148689830316 
loop_ 
_atom_site_label 
_atom_site_type_symbol 
_atom_site_fract_x 
_atom_site_fract_y 
_atom_site_fract_z 
_atom_site_charge 
C1          C  0.12644367  0.98133796  0.21150061     0.81500
N2          N  0.16193049  0.48136842  0.21157487    -0.76800
C3          C  0.17977231  0.48131987  0.24694403     0.83900
N4          N  0.16187607  0.48131565  0.28227992    -0.76800
C5          C  0.12638770  0.98128395  0.28228350     0.84000
N6          N  0.10872625  0.98137457  0.24687428    -0.78500
C7          C  0.27187122  0.48278967  0.21155753     0.81500
N8          N  0.28967885  0.48301472  0.24702569    -0.76800
C9          C  0.27183004  0.48272888  0.28246939     0.83900
N10         N  0.23623349  0.48211148  0.28230754    -0.76800
C11         C  0.21833095  0.48184629  0.24697574     0.84000
N12         N  0.23627517  0.48217112  0.21166996    -0.78500
C13         C  0.42466281  0.15663506  0.21167413     0.81500
N14         N  0.42411819  0.13988378  0.24695867    -0.76800
C15         C  0.42435136  0.15656313  0.28225452     0.83900
N16         N  0.42539964  0.19043569  0.28240423    -0.76800
C17         C  0.42593125  0.20753297  0.24698434     0.84000
N18         N  0.42570774  0.19050810  0.21155174    -0.78500
C19         C  0.43014873  0.29546954  0.21182963     0.81500
N20         N  0.42848651  0.26150811  0.21156371    -0.76800
C21         C  0.42754797  0.24434013  0.24700648     0.83900
N22         N  0.42825753  0.26143815  0.28247173    -0.76800
C23         C  0.42992070  0.29539941  0.28225234     0.84000
N24         N  0.43082419  0.31214107  0.24705221    -0.78500
O25         O  0.44483888  0.01246411  0.09709260    -0.78900
O26         O  0.39450691  0.49468019  0.45400208    -0.78900
O27         O  0.45071904  0.04318786  0.45304645    -0.78900
O28         O  0.37196340  0.44122133  0.03840251    -0.78800
O29         O  0.44444715  0.01237371  0.39679257    -0.79000
O30         O  0.39467082  0.49474174  0.04011057    -0.78900
O31         O  0.37183213  0.44116069  0.45579047    -0.78900
O32         O  0.45086732  0.04323113  0.04079976    -0.78900
C33         C  0.44601653  0.04052238  0.07933334     1.10800
C34         C  0.36946253  0.47088993  0.44561646     1.10700
C35         C  0.44567073  0.04043875  0.41454394     1.10800
C36         C  0.36962702  0.47096448  0.04854637     1.10700
O37         O  0.42430051  0.44289088  0.08425499    -0.78900
O38         O  0.48700605  0.47095502  0.42717343    -0.79000
O39         O  0.01607012  0.01493287  0.03672819    -0.78900
O40         O  0.43111859  0.40612500  0.45636700    -0.78900
O41         O  0.42402315  0.44280554  0.40976680    -0.78900
O42         O  0.48724159  0.47098085  0.06654115    -0.78900
O43         O  0.43124219  0.40616315  0.03766550    -0.78800
O44         O  0.01594988  0.01488451  0.45692708    -0.78900
Co45       Co  0.44249834  0.48445276  0.05108582     1.51500
Co46       Co  0.44230544  0.48441167  0.44282523     1.51700
Co47       Co  0.47857633  0.02185832  0.49688214     1.51600
Co48       Co  0.40479083  0.42678690  0.49705150     1.51500
O49         O  0.44686626  0.46867325  0.49695097    -1.40800
C50         C  0.42895496  0.41363256  0.07414664     1.10700
C51         C  0.01542098  0.49102950  0.43259076     1.10800
C52         C  0.01562561  0.49108253  0.06106014     1.10800
C53         C  0.42870641  0.41355621  0.41988812     1.10700
C54         C  0.43040832  0.31452657  0.31850837    -0.17200
C55         C  0.43068580  0.33603267  0.34364566     0.06800
C56         C  0.43063136  0.36405900  0.36891676     0.08700
C57         C  0.43008143  0.38789842  0.39053468    -0.18100
C58         C  0.43045125  0.38801255  0.10352360    -0.17200
C59         C  0.43107800  0.36419944  0.12516776     0.06800
C60         C  0.43116103  0.33618548  0.15046076     0.08700
C61         C  0.43082429  0.31466179  0.17559506    -0.18100
C62         C  0.42555771  0.13802227  0.31887343    -0.17200
C63         C  0.42823447  0.11833456  0.34546298     0.06900
C64         C  0.43307985  0.09231750  0.37212468     0.08700
C65         C  0.43838017  0.06886482  0.39224184    -0.18100
C66         C  0.42613243  0.13815597  0.17505989    -0.17200
C67         C  0.42889989  0.11849049  0.14847962     0.06800
C68         C  0.43370694  0.09246609  0.12181611     0.08700
C69         C  0.43889360  0.06898715  0.10167829    -0.18100
C70         C  0.29028068  0.48247088  0.32030242    -0.17200
C71         C  0.30522535  0.48153748  0.35225112     0.06800
C72         C  0.32385633  0.47940037  0.38879378     0.08700
C73         C  0.34242725  0.47636563  0.41751240    -0.18100
C74         C  0.34259818  0.47648156  0.07662610    -0.17200
C75         C  0.32400709  0.47953791  0.10531250     0.06800
C76         C  0.30533956  0.48167522  0.14182278     0.08700
C77         C  0.29036207  0.48258446  0.17374951    -0.18100
C78         C  0.10762017  0.48212593  0.31967152    -0.17200
C79         C  0.09050626  0.48356111  0.34993016     0.06800
C80         C  0.06801939  0.48590614  0.38319598     0.08700
C81         C  0.04589865  0.48821764  0.40842616    -0.18100
C82         C  0.04614687  0.48832271  0.08518470    -0.17200
C83         C  0.06825716  0.48603499  0.11044293     0.06800
C84         C  0.09068643  0.48368895  0.14376764     0.08700
C85         C  0.10773858  0.48222963  0.17407360    -0.18100
C86         C  0.12644345  0.98133801  0.71150057     0.81500
N87         N  0.16193041  0.48136850  0.71157470    -0.76800
C88         C  0.17977264  0.48131997  0.74694414     0.83900
N89         N  0.16187601  0.48131562  0.78227979    -0.76800
C90         C  0.12638762  0.98128403  0.78228350     0.84000
N91         N  0.10872637  0.98137464  0.74687428    -0.78500
C92         C  0.27187101  0.48278947  0.71155758     0.81500
N93         N  0.28967895  0.48301450  0.74702563    -0.76800
C94         C  0.27182993  0.48272879  0.78246947     0.83900
N95         N  0.23623364  0.48211140  0.78230746    -0.76800
C96         C  0.21833071  0.48184615  0.74697593     0.84000
N97         N  0.23627538  0.48217101  0.71166985    -0.78500
C98         C  0.42466272  0.15663473  0.71167429     0.81500
N99         N  0.42411811  0.13988391  0.74695846    -0.76800
C100        C  0.42435127  0.15656281  0.78225470     0.83900
N101        N  0.42539955  0.19043589  0.78240398    -0.76800
C102        C  0.42593115  0.20753263  0.74698448     0.84000
N103        N  0.42570767  0.19050832  0.71155160    -0.78500
C104        C  0.43014855  0.29546979  0.71182937     0.81500
N105        N  0.42848636  0.26150790  0.71156379    -0.76800
C106        C  0.42754791  0.24434052  0.74700621     0.83900
N107        N  0.42825744  0.26143793  0.78247171    -0.76800
C108        C  0.42992068  0.29539985  0.78225212     0.84000
N109        N  0.43082406  0.31214094  0.74705236    -0.78500
O110        O  0.44483906  0.01246401  0.59709259    -0.78900
O111        O  0.39450699  0.49468023  0.95400209    -0.78900
O112        O  0.45071901  0.04318785  0.95304648    -0.78900
O113        O  0.37196338  0.44122120  0.53840251    -0.78800
O114        O  0.44444720  0.01237371  0.89679253    -0.79000
O115        O  0.39467080  0.49474165  0.54011058    -0.78900
O116        O  0.37183217  0.44116076  0.95579042    -0.78900
O117        O  0.45086738  0.04323104  0.54079975    -0.78900
C118        C  0.44601647  0.04052226  0.57933332     1.10800
C119        C  0.36946275  0.47089011  0.94561637     1.10700
C120        C  0.44567067  0.04043882  0.91454380     1.10800
C121        C  0.36962685  0.47096432  0.54854630     1.10700
O122        O  0.42430033  0.44289083  0.58425500    -0.78900
O123        O  0.48700615  0.47095509  0.92717352    -0.79000
O124        O  0.01607019  0.01493276  0.53672818    -0.78900
O125        O  0.43111850  0.40612501  0.95636710    -0.78900
O126        O  0.42402330  0.44280554  0.90976679    -0.78900
O127        O  0.48724147  0.47098073  0.56654120    -0.78900
O128        O  0.43124224  0.40616318  0.53766551    -0.78800
O129        O  0.01594980  0.01488463  0.95692703    -0.78900
Co130      Co  0.44249822  0.48445269  0.55108580     1.51500
Co131      Co  0.44230552  0.48441168  0.94282525     1.51700
Co132      Co  0.47857627  0.02185839  0.99688213     1.51600
Co133      Co  0.40479082  0.42678702  0.99705150     1.51500
O134        O  0.44686639  0.46867327  0.99695099    -1.40800
C135        C  0.42895496  0.41363267  0.57414667     1.10700
C136        C  0.01542112  0.49102952  0.93259059     1.10800
C137        C  0.01562541  0.49108238  0.56106017     1.10800
C138        C  0.42870640  0.41355607  0.91988815     1.10700
C139        C  0.43040835  0.31452645  0.81850838    -0.17200
C140        C  0.43068572  0.33603280  0.84364572     0.06800
C141        C  0.43063135  0.36405885  0.86891678     0.08700
C142        C  0.43008149  0.38789847  0.89053487    -0.18100
C143        C  0.43045119  0.38801248  0.60352362    -0.17200
C144        C  0.43107778  0.36419947  0.62516781     0.06800
C145        C  0.43116080  0.33618548  0.65046078     0.08700
C146        C  0.43082407  0.31466164  0.67559509    -0.18100
C147        C  0.42555762  0.13802245  0.81887317    -0.17200
C148        C  0.42823438  0.11833439  0.84546319     0.06900
C149        C  0.43307975  0.09231759  0.87212441     0.08700
C150        C  0.43838012  0.06886467  0.89224196    -0.18100
C151        C  0.42613232  0.13815597  0.67505998    -0.17200
C152        C  0.42889976  0.11849043  0.64847962     0.06800
C153        C  0.43370683  0.09246603  0.62181621     0.08700
C154        C  0.43889355  0.06898706  0.60167830    -0.18100
C155        C  0.29028067  0.48247074  0.82030243    -0.17200
C156        C  0.30522535  0.48153738  0.85225111     0.06800
C157        C  0.32385642  0.47940026  0.88879377     0.08700
C158        C  0.34242733  0.47636567  0.91751235    -0.18100
C159        C  0.34259830  0.47648156  0.57662605    -0.17200
C160        C  0.32400714  0.47953790  0.60531261     0.06800
C161        C  0.30533968  0.48167512  0.64182284     0.08700
C162        C  0.29036215  0.48258439  0.67374955    -0.18100
C163        C  0.10762036  0.48212602  0.81967113    -0.17200
C164        C  0.09050616  0.48356116  0.84993020     0.06800
C165        C  0.06801961  0.48590621  0.88319567     0.08700
C166        C  0.04589865  0.48821772  0.90842627    -0.18100
C167        C  0.04614680  0.48832265  0.58518483    -0.17200
C168        C  0.06825704  0.48603502  0.61044285     0.06800
C169        C  0.09068656  0.48368904  0.64376773     0.08700
C170        C  0.10773855  0.48222983  0.67407328    -0.18100
C171        C  0.12644358  0.48133778  0.21150043     0.81500
N172        N  0.16193049  0.98136858  0.21157464    -0.76800
C173        C  0.17977242  0.98131998  0.24694449     0.83900
N174        N  0.16187606  0.98131562  0.28227966    -0.76800
C175        C  0.12638773  0.48128393  0.28228327     0.84000
N176        N  0.10872625  0.48137447  0.24687457    -0.78500
C177        C  0.27187106  0.98278960  0.21155726     0.81500
N178        N  0.28967894  0.98301468  0.24702589    -0.76800
C179        C  0.27182988  0.98272904  0.28246915     0.83900
N180        N  0.23623366  0.98211158  0.28230777    -0.76800
C181        C  0.21833079  0.98184628  0.24697528     0.84000
N182        N  0.23627527  0.98217114  0.21167015    -0.78500
C183        C  0.42466268  0.65663499  0.21167422     0.81500
N184        N  0.42411815  0.63988380  0.24695839    -0.76800
C185        C  0.42435128  0.65656301  0.28225463     0.83900
N186        N  0.42539964  0.69043572  0.28240395    -0.76800
C187        C  0.42593128  0.70753289  0.24698458     0.84000
N188        N  0.42570762  0.69050814  0.21155151    -0.78500
C189        C  0.43014875  0.79546979  0.21182951     0.81500
N190        N  0.42848649  0.76150805  0.21156392    -0.76800
C191        C  0.42754799  0.74434026  0.24700612     0.83900
N192        N  0.42825758  0.76143804  0.28247188    -0.76800
C193        C  0.42992082  0.79539949  0.28225226     0.84000
N194        N  0.43082425  0.81214103  0.24705253    -0.78500
O195        O  0.44483899  0.51246413  0.09709261    -0.78900
O196        O  0.39450697  0.99468028  0.45400208    -0.78900
O197        O  0.45071900  0.54318770  0.45304646    -0.78900
O198        O  0.37196344  0.94122133  0.03840257    -0.78800
O199        O  0.44444706  0.51237357  0.39679252    -0.79000
O200        O  0.39467072  0.99474179  0.04011054    -0.78900
O201        O  0.37183222  0.94116080  0.45579045    -0.78900
O202        O  0.45086735  0.54323104  0.04079971    -0.78900
C203        C  0.44601650  0.54052237  0.07933328     1.10800
C204        C  0.36946268  0.97089010  0.44561649     1.10700
C205        C  0.44567058  0.54043862  0.41454376     1.10800
C206        C  0.36962693  0.97096448  0.04854642     1.10700
O207        O  0.42430044  0.94289086  0.08425497    -0.78900
O208        O  0.48700607  0.97095516  0.42717337    -0.79000
O209        O  0.01607020  0.51493276  0.03672820    -0.78900
O210        O  0.43111863  0.90612514  0.45636700    -0.78900
O211        O  0.42402322  0.94280561  0.40976676    -0.78900
O212        O  0.48724142  0.97098081  0.06654117    -0.78900
O213        O  0.43124229  0.90616323  0.03766545    -0.78800
O214        O  0.01594976  0.51488463  0.45692697    -0.78900
Co215      Co  0.44249821  0.98445278  0.05108580     1.51500
Co216      Co  0.44230546  0.98441174  0.44282525     1.51700
Co217      Co  0.47857618  0.52185822  0.49688213     1.51600
Co218      Co  0.40479093  0.92678704  0.49705149     1.51500
O219        O  0.44686642  0.96867332  0.49695099    -1.40800
C220        C  0.42895501  0.91363252  0.07414663     1.10700
C221        C  0.01542103  0.99102935  0.43259072     1.10800
C222        C  0.01562542  0.99108260  0.06106018     1.10800
C223        C  0.42870638  0.91355637  0.41988812     1.10700
C224        C  0.43040840  0.81452647  0.31850867    -0.17200
C225        C  0.43068574  0.83603257  0.34364567     0.06800
C226        C  0.43063125  0.86405902  0.36891692     0.08700
C227        C  0.43008134  0.88789839  0.39053466    -0.18100
C228        C  0.43045136  0.88801263  0.10352347    -0.17200
C229        C  0.43107798  0.86419942  0.12516798     0.06800
C230        C  0.43116099  0.83618568  0.15046082     0.08700
C231        C  0.43082426  0.81466174  0.17559532    -0.18100
C232        C  0.42555777  0.63802232  0.31887311    -0.17200
C233        C  0.42823453  0.61833445  0.34546304     0.06900
C234        C  0.43307980  0.59231749  0.37212435     0.08700
C235        C  0.43838024  0.56886465  0.39224185    -0.18100
C236        C  0.42613231  0.63815599  0.17505981    -0.17200
C237        C  0.42889981  0.61849050  0.14847960     0.06800
C238        C  0.43370686  0.59246611  0.12181608     0.08700
C239        C  0.43889349  0.56898713  0.10167821    -0.18100
C240        C  0.29028077  0.98247101  0.32030266    -0.17200
C241        C  0.30522526  0.98153765  0.35225107     0.06800
C242        C  0.32385641  0.97940043  0.38879398     0.08700
C243        C  0.34242721  0.97636576  0.41751241    -0.18100
C244        C  0.34259823  0.97648148  0.07662613    -0.17200
C245        C  0.32400711  0.97953785  0.10531269     0.06800
C246        C  0.30533967  0.98167515  0.14182274     0.08700
C247        C  0.29036210  0.98258437  0.17374970    -0.18100
C248        C  0.10762026  0.98212589  0.31967125    -0.17200
C249        C  0.09050615  0.98356103  0.34993021     0.06800
C250        C  0.06801955  0.98590595  0.38319589     0.08700
C251        C  0.04589864  0.98821752  0.40842627    -0.18100
C252        C  0.04614685  0.98832280  0.08518479    -0.17200
C253        C  0.06825717  0.98603519  0.11044282     0.06800
C254        C  0.09068652  0.98368916  0.14376774     0.08700
C255        C  0.10773867  0.98222987  0.17407339    -0.18100
C256        C  0.12644388  0.48133787  0.71150064     0.81500
N257        N  0.16193064  0.98136858  0.71157479    -0.76800
C258        C  0.17977220  0.98131993  0.74694404     0.83900
N259        N  0.16187617  0.98131563  0.78227980    -0.76800
C260        C  0.12638802  0.48128409  0.78228358     0.84000
N261        N  0.10872625  0.48137468  0.74687422    -0.78500
C262        C  0.27187126  0.98278953  0.71155764     0.81500
N263        N  0.28967885  0.98301458  0.74702566    -0.76800
C264        C  0.27183009  0.98272888  0.78246954     0.83900
N265        N  0.23623342  0.98211151  0.78230743    -0.76800
C266        C  0.21833102  0.98184618  0.74697592     0.84000
N267        N  0.23627517  0.98217096  0.71166991    -0.78500
C268        C  0.42466257  0.65663499  0.71167396     0.81500
N269        N  0.42411815  0.63988379  0.74695850    -0.76800
C270        C  0.42435122  0.65656287  0.78225436     0.83900
N271        N  0.42539952  0.69043569  0.78240408    -0.76800
C272        C  0.42593123  0.70753277  0.74698424     0.84000
N273        N  0.42570762  0.69050820  0.71155165    -0.78500
C274        C  0.43014860  0.79546982  0.71182979     0.81500
N275        N  0.42848642  0.76150795  0.71156378    -0.76800
C276        C  0.42754786  0.74434040  0.74700663     0.83900
N277        N  0.42825738  0.76143785  0.78247172    -0.76800
C278        C  0.42992078  0.79539972  0.78225255     0.84000
N279        N  0.43082406  0.81214090  0.74705233    -0.78500
O280        O  0.44483892  0.51246410  0.59709253    -0.78900
O281        O  0.39450703  0.99468029  0.95400204    -0.78900
O282        O  0.45071908  0.54318778  0.95304647    -0.78900
O283        O  0.37196342  0.94122126  0.53840248    -0.78800
O284        O  0.44444726  0.51237363  0.89679256    -0.79000
O285        O  0.39467086  0.99474167  0.54011064    -0.78900
O286        O  0.37183225  0.94116079  0.95579047    -0.78900
O287        O  0.45086726  0.54323105  0.54079969    -0.78900
C288        C  0.44601651  0.54052236  0.57933317     1.10800
C289        C  0.36946261  0.97089002  0.94561637     1.10700
C290        C  0.44567070  0.54043874  0.91454393     1.10800
C291        C  0.36962702  0.97096441  0.54854638     1.10700
O292        O  0.42430038  0.94289076  0.58425505    -0.78900
O293        O  0.48700619  0.97095519  0.92717338    -0.79000
O294        O  0.01607010  0.51493266  0.53672817    -0.78900
O295        O  0.43111855  0.90612505  0.95636706    -0.78900
O296        O  0.42402331  0.94280566  0.90976687    -0.78900
O297        O  0.48724149  0.97098068  0.56654111    -0.78900
O298        O  0.43124230  0.90616319  0.53766549    -0.78800
O299        O  0.01594983  0.51488464  0.95692703    -0.78900
Co300      Co  0.44249832  0.98445267  0.55108584     1.51500
Co301      Co  0.44230553  0.98441179  0.94282522     1.51700
Co302      Co  0.47857626  0.52185827  0.99688215     1.51600
Co303      Co  0.40479087  0.92678703  0.99705153     1.51500
O304        O  0.44686636  0.96867337  0.99695096    -1.40800
C305        C  0.42895494  0.91363260  0.57414669     1.10700
C306        C  0.01542105  0.99102950  0.93259064     1.10800
C307        C  0.01562544  0.99108256  0.56106032     1.10800
C308        C  0.42870652  0.91355620  0.91988828     1.10700
C309        C  0.43040834  0.81452635  0.81850846    -0.17200
C310        C  0.43068579  0.83603275  0.84364586     0.06800
C311        C  0.43063144  0.86405895  0.86891685     0.08700
C312        C  0.43008146  0.88789850  0.89053481    -0.18100
C313        C  0.43045122  0.88801242  0.60352361    -0.17200
C314        C  0.43107786  0.86419949  0.62516785     0.06800
C315        C  0.43116088  0.83618548  0.65046087     0.08700
C316        C  0.43082416  0.81466173  0.67559513    -0.18100
C317        C  0.42555767  0.63802229  0.81887325    -0.17200
C318        C  0.42823445  0.61833440  0.84546295     0.06900
C319        C  0.43307985  0.59231744  0.87212441     0.08700
C320        C  0.43838017  0.56886466  0.89224191    -0.18100
C321        C  0.42613230  0.63815608  0.67505971    -0.17200
C322        C  0.42889978  0.61849054  0.64847956     0.06800
C323        C  0.43370692  0.59246610  0.62181602     0.08700
C324        C  0.43889346  0.56898717  0.60167821    -0.18100
C325        C  0.29028056  0.98247092  0.82030237    -0.17200
C326        C  0.30522537  0.98153748  0.85225124     0.06800
C327        C  0.32385635  0.97940037  0.88879368     0.08700
C328        C  0.34242735  0.97636569  0.91751247    -0.18100
C329        C  0.34259820  0.97648156  0.57662605    -0.17200
C330        C  0.32400708  0.97953781  0.60531254     0.06800
C331        C  0.30533962  0.98167505  0.64182284     0.08700
C332        C  0.29036206  0.98258436  0.67374953    -0.18100
C333        C  0.10762030  0.98212593  0.81967121    -0.17200
C334        C  0.09050620  0.98356110  0.84993026     0.06800
C335        C  0.06801948  0.98590615  0.88319574     0.08700
C336        C  0.04589869  0.98821771  0.90842624    -0.18100
C337        C  0.04614675  0.98832267  0.58518473    -0.17200
C338        C  0.06825715  0.98603508  0.61044285     0.06800
C339        C  0.09068646  0.98368923  0.64376762     0.08700
C340        C  0.10773862  0.98222981  0.67407341    -0.18100
C341        C  0.62644362  0.98133769  0.21150051     0.81500
N342        N  0.66193046  0.48136840  0.21157470    -0.76800
C343        C  0.67977231  0.48131988  0.24694417     0.83900
N344        N  0.66187602  0.48131546  0.28227974    -0.76800
C345        C  0.62638767  0.98128384  0.28228345     0.84000
N346        N  0.60872624  0.98137444  0.24687418    -0.78500
C347        C  0.77187104  0.48278940  0.21155760     0.81500
N348        N  0.78967880  0.48301448  0.24702557    -0.76800
C349        C  0.77182992  0.48272883  0.28246946     0.83900
N350        N  0.73623343  0.48211139  0.28230745    -0.76800
C351        C  0.71833082  0.48184612  0.24697584     0.84000
N352        N  0.73627516  0.48217095  0.21166984    -0.78500
C353        C  0.92466263  0.15663496  0.21167425     0.81500
N354        N  0.92411813  0.13988380  0.24695835    -0.76800
C355        C  0.92435128  0.15656291  0.28225467     0.83900
N356        N  0.92539961  0.19043574  0.28240396    -0.76800
C357        C  0.92593120  0.20753280  0.24698460     0.84000
N358        N  0.92570771  0.19050820  0.21155155    -0.78500
C359        C  0.93014864  0.29546982  0.21182954     0.81500
N360        N  0.92848644  0.26150795  0.21156390    -0.76800
C361        C  0.92754798  0.24434041  0.24700630     0.83900
N362        N  0.92825752  0.26143789  0.28247184    -0.76800
C363        C  0.92992077  0.29539972  0.28225232     0.84000
N364        N  0.93082415  0.31214092  0.24705248    -0.78500
O365        O  0.94483886  0.01246409  0.09709257    -0.78900
O366        O  0.89450693  0.49468020  0.45400200    -0.78900
O367        O  0.95071913  0.04318781  0.45304641    -0.78900
O368        O  0.87196335  0.44122122  0.03840249    -0.78800
O369        O  0.94444718  0.01237364  0.39679249    -0.79000
O370        O  0.89467083  0.49474162  0.04011060    -0.78900
O371        O  0.87183220  0.44116069  0.45579039    -0.78900
O372        O  0.95086725  0.04323107  0.04079970    -0.78900
C373        C  0.94601637  0.04052233  0.07933326     1.10800
C374        C  0.86946264  0.47089005  0.44561636     1.10700
C375        C  0.94567076  0.04043879  0.41454385     1.10800
C376        C  0.86962701  0.47096438  0.04854637     1.10700
O377        O  0.92430042  0.44289076  0.08425505    -0.78900
O378        O  0.98700612  0.47095508  0.42717350    -0.79000
O379        O  0.51607017  0.01493273  0.03672816    -0.78900
O380        O  0.93111857  0.40612496  0.45636696    -0.78900
O381        O  0.92402317  0.44280552  0.40976677    -0.78900
O382        O  0.98724156  0.47098072  0.06654107    -0.78900
O383        O  0.93124220  0.40616312  0.03766550    -0.78800
O384        O  0.51594983  0.01488460  0.45692699    -0.78900
Co385      Co  0.94249831  0.48445267  0.05108583     1.51500
Co386      Co  0.94230547  0.48441167  0.44282527     1.51700
Co387      Co  0.97857631  0.02185833  0.49688213     1.51600
Co388      Co  0.90479082  0.42678686  0.49705147     1.51500
O389        O  0.94686626  0.46867322  0.49695102    -1.40800
C390        C  0.92895495  0.41363259  0.07414669     1.10700
C391        C  0.51542102  0.49102939  0.43259056     1.10800
C392        C  0.51562552  0.49108253  0.06106027     1.10800
C393        C  0.92870648  0.41355617  0.41988809     1.10700
C394        C  0.93040843  0.31452634  0.31850854    -0.17200
C395        C  0.93068582  0.33603269  0.34364576     0.06800
C396        C  0.93063145  0.36405885  0.36891686     0.08700
C397        C  0.93008149  0.38789840  0.39053475    -0.18100
C398        C  0.93045125  0.38801245  0.10352358    -0.17200
C399        C  0.93107788  0.36419945  0.12516786     0.06800
C400        C  0.93116089  0.33618554  0.15046080     0.08700
C401        C  0.93082416  0.31466171  0.17559519    -0.18100
C402        C  0.92555767  0.13802236  0.31887312    -0.17200
C403        C  0.92823446  0.11833439  0.34546306     0.06900
C404        C  0.93307985  0.09231751  0.37212435     0.08700
C405        C  0.93838023  0.06886466  0.39224188    -0.18100
C406        C  0.92613234  0.13815603  0.17505975    -0.17200
C407        C  0.92889977  0.11849053  0.14847957     0.06800
C408        C  0.93370681  0.09246611  0.12181600     0.08700
C409        C  0.93889343  0.06898713  0.10167821    -0.18100
C410        C  0.79028059  0.48247080  0.32030234    -0.17200
C411        C  0.80522539  0.48153747  0.35225106     0.06800
C412        C  0.82385639  0.47940035  0.38879368     0.08700
C413        C  0.84242730  0.47636560  0.41751229    -0.18100
C414        C  0.84259820  0.47648159  0.07662608    -0.17200
C415        C  0.82400710  0.47953783  0.10531248     0.06800
C416        C  0.80533954  0.48167506  0.14182281     0.08700
C417        C  0.79036209  0.48258432  0.17374944    -0.18100
C418        C  0.60762025  0.48212586  0.31967110    -0.17200
C419        C  0.59050601  0.48356096  0.34993031     0.06800
C420        C  0.56801948  0.48590604  0.38319566     0.08700
C421        C  0.54589851  0.48821769  0.40842629    -0.18100
C422        C  0.54614689  0.48832280  0.08518467    -0.17200
C423        C  0.56825720  0.48603511  0.11044279     0.06800
C424        C  0.59068646  0.48368908  0.14376762     0.08700
C425        C  0.60773856  0.48222966  0.17407332    -0.18100
C426        C  0.62644351  0.98133791  0.71150033     0.81500
N427        N  0.66193043  0.48136858  0.71157467    -0.76800
C428        C  0.67977263  0.48131996  0.74694403     0.83900
N429        N  0.66187605  0.48131570  0.78227972    -0.76800
C430        C  0.62638766  0.98128417  0.78228321     0.84000
N431        N  0.60872643  0.98137471  0.74687428    -0.78500
C432        C  0.77187107  0.48278955  0.71155742     0.81500
N433        N  0.78967897  0.48301454  0.74702567    -0.76800
C434        C  0.77182991  0.48272885  0.78246932     0.83900
N435        N  0.73623366  0.48211149  0.78230746    -0.76800
C436        C  0.71833077  0.48184629  0.74697575     0.84000
N437        N  0.73627543  0.48217107  0.71166983    -0.78500
C438        C  0.92466264  0.15663496  0.71167408     0.81500
N439        N  0.92411809  0.13988377  0.74695834    -0.76800
C440        C  0.92435130  0.15656302  0.78225445     0.83900
N441        N  0.92539952  0.19043566  0.78240400    -0.76800
C442        C  0.92593106  0.20753277  0.74698426     0.84000
N443        N  0.92570764  0.19050822  0.71155158    -0.78500
C444        C  0.93014856  0.29546987  0.71182978     0.81500
N445        N  0.92848634  0.26150795  0.71156378    -0.76800
C446        C  0.92754787  0.24434043  0.74700657     0.83900
N447        N  0.92825748  0.26143787  0.78247172    -0.76800
C448        C  0.92992076  0.29539976  0.78225253     0.84000
N449        N  0.93082411  0.31214091  0.74705233    -0.78500
O450        O  0.94483880  0.01246402  0.59709250    -0.78900
O451        O  0.89450703  0.49468019  0.95400207    -0.78900
O452        O  0.95071902  0.04318780  0.95304650    -0.78900
O453        O  0.87196336  0.44122119  0.53840249    -0.78800
O454        O  0.94444729  0.01237364  0.89679260    -0.79000
O455        O  0.89467079  0.49474165  0.54011063    -0.78900
O456        O  0.87183217  0.44116072  0.95579040    -0.78900
O457        O  0.95086732  0.04323103  0.54079967    -0.78900
C458        C  0.94601646  0.04052234  0.57933319     1.10800
C459        C  0.86946272  0.47089006  0.94561635     1.10700
C460        C  0.94567076  0.04043875  0.91454397     1.10800
C461        C  0.86962680  0.47096432  0.54854627     1.10700
O462        O  0.92430035  0.44289079  0.58425497    -0.78900
O463        O  0.98700614  0.47095512  0.92717351    -0.79000
O464        O  0.51607021  0.01493268  0.53672818    -0.78900
O465        O  0.93111858  0.40612502  0.95636705    -0.78900
O466        O  0.92402331  0.44280558  0.90976683    -0.78900
O467        O  0.98724145  0.47098075  0.56654122    -0.78900
O468        O  0.93124224  0.40616309  0.53766551    -0.78800
O469        O  0.51594983  0.01488470  0.95692698    -0.78900
Co470      Co  0.94249822  0.48445269  0.55108585     1.51500
Co471      Co  0.94230555  0.48441171  0.94282525     1.51700
Co472      Co  0.97857620  0.02185831  0.99688216     1.51600
Co473      Co  0.90479083  0.42678696  0.99705147     1.51500
O474        O  0.94686639  0.46867324  0.99695098    -1.40800
C475        C  0.92895492  0.41363255  0.57414665     1.10700
C476        C  0.51542113  0.49102951  0.93259058     1.10800
C477        C  0.51562537  0.49108239  0.56106027     1.10800
C478        C  0.92870655  0.41355618  0.91988826     1.10700
C479        C  0.93040836  0.31452639  0.81850846    -0.17200
C480        C  0.93068599  0.33603279  0.84364583     0.06800
C481        C  0.93063156  0.36405900  0.86891683     0.08700
C482        C  0.93008164  0.38789849  0.89053480    -0.18100
C483        C  0.93045116  0.38801245  0.60352362    -0.17200
C484        C  0.93107781  0.36419949  0.62516789     0.06800
C485        C  0.93116082  0.33618552  0.65046089     0.08700
C486        C  0.93082408  0.31466174  0.67559518    -0.18100
C487        C  0.92555763  0.13802223  0.81887319    -0.17200
C488        C  0.92823447  0.11833448  0.84546287     0.06900
C489        C  0.93307978  0.09231738  0.87212443     0.08700
C490        C  0.93838024  0.06886474  0.89224183    -0.18100
C491        C  0.92613231  0.13815606  0.67505972    -0.17200
C492        C  0.92889978  0.11849054  0.64847951     0.06800
C493        C  0.93370684  0.09246613  0.62181602     0.08700
C494        C  0.93889351  0.06898715  0.60167809    -0.18100
C495        C  0.79028068  0.48247084  0.82030242    -0.17200
C496        C  0.80522534  0.48153752  0.85225104     0.06800
C497        C  0.82385641  0.47940036  0.88879374     0.08700
C498        C  0.84242730  0.47636566  0.91751235    -0.18100
C499        C  0.84259820  0.47648157  0.57662589    -0.17200
C500        C  0.82400714  0.47953790  0.60531260     0.06800
C501        C  0.80533962  0.48167512  0.64182267     0.08700
C502        C  0.79036216  0.48258442  0.67374954    -0.18100
C503        C  0.60762033  0.48212601  0.81967106    -0.17200
C504        C  0.59050618  0.48356116  0.84993007     0.06800
C505        C  0.56801963  0.48590621  0.88319563     0.08700
C506        C  0.54589869  0.48821772  0.90842623    -0.18100
C507        C  0.54614678  0.48832273  0.58518475    -0.17200
C508        C  0.56825705  0.48603502  0.61044281     0.06800
C509        C  0.59068656  0.48368914  0.64376760     0.08700
C510        C  0.60773860  0.48222984  0.67407323    -0.18100
C511        C  0.62644358  0.48133770  0.21150053     0.81500
N512        N  0.66193047  0.98136829  0.21157467    -0.76800
C513        C  0.67977233  0.98131984  0.24694416     0.83900
N514        N  0.66187606  0.98131552  0.28227971    -0.76800
C515        C  0.62638759  0.48128386  0.28228350     0.84000
N516        N  0.60872621  0.48137437  0.24687420    -0.78500
C517        C  0.77187108  0.98278937  0.21155756     0.81500
N518        N  0.78967885  0.98301450  0.24702557    -0.76800
C519        C  0.77183000  0.98272873  0.28246940     0.83900
N520        N  0.73623350  0.98211141  0.28230742    -0.76800
C521        C  0.71833086  0.98184609  0.24697578     0.84000
N522        N  0.73627517  0.98217086  0.21166984    -0.78500
C523        C  0.92466265  0.65663499  0.21167414     0.81500
N524        N  0.92411824  0.63988373  0.24695864    -0.76800
C525        C  0.92435134  0.65656305  0.28225456     0.83900
N526        N  0.92539961  0.69043565  0.28240417    -0.76800
C527        C  0.92593128  0.70753294  0.24698444     0.84000
N528        N  0.92570769  0.69050802  0.21155172    -0.78500
C529        C  0.93014881  0.79546947  0.21182929     0.81500
N530        N  0.92848656  0.76150805  0.21156377    -0.76800
C531        C  0.92754784  0.74434006  0.24700622     0.83900
N532        N  0.92825740  0.76143813  0.28247177    -0.76800
C533        C  0.92992066  0.79539942  0.28225206     0.84000
N534        N  0.93082414  0.81214102  0.24705230    -0.78500
O535        O  0.94483900  0.51246408  0.09709259    -0.78900
O536        O  0.89450695  0.99468030  0.45400202    -0.78900
O537        O  0.95071893  0.54318771  0.45304660    -0.78900
O538        O  0.87196342  0.94122118  0.03840257    -0.78800
O539        O  0.94444717  0.51237365  0.39679265    -0.79000
O540        O  0.89467074  0.99474161  0.04011056    -0.78900
O541        O  0.87183218  0.94116079  0.45579043    -0.78900
O542        O  0.95086738  0.54323101  0.04079973    -0.78900
C543        C  0.94601660  0.54052235  0.07933331     1.10800
C544        C  0.86946267  0.97089002  0.44561634     1.10700
C545        C  0.94567061  0.54043872  0.41454396     1.10800
C546        C  0.86962693  0.97096428  0.04854636     1.10700
O547        O  0.92430048  0.94289081  0.08425496    -0.78900
O548        O  0.98700608  0.97095511  0.42717340    -0.79000
O549        O  0.51607020  0.51493284  0.03672814    -0.78900
O550        O  0.93111859  0.90612509  0.45636699    -0.78900
O551        O  0.92402318  0.94280560  0.40976677    -0.78900
O552        O  0.98724146  0.97098090  0.06654112    -0.78900
O553        O  0.93124229  0.90616313  0.03766548    -0.78800
O554        O  0.51594972  0.51488453  0.45692700    -0.78900
Co555      Co  0.94249823  0.98445275  0.05108580     1.51500
Co556      Co  0.94230545  0.98441173  0.44282517     1.51700
Co557      Co  0.97857616  0.52185823  0.49688220     1.51600
Co558      Co  0.90479089  0.92678701  0.49705149     1.51500
O559        O  0.94686638  0.96867334  0.49695092    -1.40800
C560        C  0.92895507  0.91363249  0.07414665     1.10700
C561        C  0.51542101  0.99102940  0.43259055     1.10800
C562        C  0.51562538  0.99108236  0.06106031     1.10800
C563        C  0.92870648  0.91355625  0.41988818     1.10700
C564        C  0.93040827  0.81452661  0.31850841    -0.17200
C565        C  0.93068563  0.83603268  0.34364547     0.06800
C566        C  0.93063124  0.86405904  0.36891676     0.08700
C567        C  0.93008134  0.88789845  0.39053464    -0.18100
C568        C  0.93045151  0.88801260  0.10352354    -0.17200
C569        C  0.93107811  0.86419935  0.12516782     0.06800
C570        C  0.93116125  0.83618553  0.15046068     0.08700
C571        C  0.93082443  0.81466165  0.17559506    -0.18100
C572        C  0.92555777  0.63802231  0.31887332    -0.17200
C573        C  0.92823453  0.61833455  0.34546311     0.06900
C574        C  0.93307984  0.59231758  0.37212459     0.08700
C575        C  0.93838023  0.56886472  0.39224198    -0.18100
C576        C  0.92613241  0.63815595  0.17505991    -0.17200
C577        C  0.92889997  0.61849047  0.14847965     0.06800
C578        C  0.93370702  0.59246605  0.12181618     0.08700
C579        C  0.93889365  0.56898710  0.10167827    -0.18100
C580        C  0.79028061  0.98247085  0.32030241    -0.17200
C581        C  0.80522530  0.98153753  0.35225111     0.06800
C582        C  0.82385636  0.97940027  0.38879377     0.08700
C583        C  0.84242725  0.97636565  0.41751233    -0.18100
C584        C  0.84259813  0.97648136  0.07662610    -0.17200
C585        C  0.82400705  0.97953763  0.10531258     0.06800
C586        C  0.80533957  0.98167488  0.14182288     0.08700
C587        C  0.79036206  0.98258411  0.17374953    -0.18100
C588        C  0.60762031  0.98212586  0.31967111    -0.17200
C589        C  0.59050615  0.98356105  0.34993022     0.06800
C590        C  0.56801948  0.98590611  0.38319562     0.08700
C591        C  0.54589862  0.98821764  0.40842622    -0.18100
C592        C  0.54614680  0.98832261  0.08518469    -0.17200
C593        C  0.56825715  0.98603496  0.11044278     0.06800
C594        C  0.59068638  0.98368890  0.14376764     0.08700
C595        C  0.60773857  0.98222958  0.17407331    -0.18100
C596        C  0.62644387  0.48133789  0.71150049     0.81500
N597        N  0.66193076  0.98136857  0.71157486    -0.76800
C598        C  0.67977226  0.98132018  0.74694370     0.83900
N599        N  0.66187624  0.98131586  0.78227985    -0.76800
C600        C  0.62638801  0.48128412  0.78228338     0.84000
N601        N  0.60872623  0.48137464  0.74687421    -0.78500
C602        C  0.77187144  0.98278959  0.71155755     0.81500
N603        N  0.78967884  0.98301465  0.74702564    -0.76800
C604        C  0.77183025  0.98272901  0.78246942     0.83900
N605        N  0.73623343  0.98211162  0.78230734    -0.76800
C606        C  0.71833123  0.98184639  0.74697604     0.84000
N607        N  0.73627521  0.98217117  0.71166982    -0.78500
C608        C  0.92466257  0.65663475  0.71167414     0.81500
N609        N  0.92411817  0.63988385  0.74695873    -0.76800
C610        C  0.92435126  0.65656293  0.78225452     0.83900
N611        N  0.92539952  0.69043578  0.78240423    -0.76800
C612        C  0.92593118  0.70753273  0.74698428     0.84000
N613        N  0.92570761  0.69050821  0.71155181    -0.78500
C614        C  0.93014866  0.79546964  0.71182952     0.81500
N615        N  0.92848640  0.76150795  0.71156369    -0.76800
C616        C  0.92754777  0.74434030  0.74700646     0.83900
N617        N  0.92825736  0.76143801  0.78247169    -0.76800
C618        C  0.92992066  0.79539955  0.78225222     0.84000
N619        N  0.93082407  0.81214097  0.74705221    -0.78500
O620        O  0.94483889  0.51246401  0.59709258    -0.78900
O621        O  0.89450704  0.99468016  0.95400206    -0.78900
O622        O  0.95071905  0.54318776  0.95304651    -0.78900
O623        O  0.87196341  0.94122123  0.53840250    -0.78800
O624        O  0.94444723  0.51237366  0.89679256    -0.79000
O625        O  0.89467075  0.99474166  0.54011055    -0.78900
O626        O  0.87183220  0.94116068  0.95579046    -0.78900
O627        O  0.95086725  0.54323104  0.54079977    -0.78900
C628        C  0.94601649  0.54052234  0.57933339     1.10800
C629        C  0.86946270  0.97088989  0.94561639     1.10700
C630        C  0.94567065  0.54043868  0.91454391     1.10800
C631        C  0.86962687  0.97096441  0.54854630     1.10700
O632        O  0.92430030  0.94289077  0.58425498    -0.78900
O633        O  0.98700619  0.97095507  0.92717352    -0.79000
O634        O  0.51607007  0.51493267  0.53672812    -0.78900
O635        O  0.93111855  0.90612498  0.95636702    -0.78900
O636        O  0.92402326  0.94280553  0.90976680    -0.78900
O637        O  0.98724145  0.97098082  0.56654117    -0.78900
O638        O  0.93124235  0.90616321  0.53766548    -0.78800
O639        O  0.51594981  0.51488465  0.95692700    -0.78900
Co640      Co  0.94249823  0.98445270  0.55108577     1.51500
Co641      Co  0.94230554  0.98441167  0.94282523     1.51700
Co642      Co  0.97857626  0.52185823  0.99688218     1.51600
Co643      Co  0.90479087  0.92678695  0.99705153     1.51500
O644        O  0.94686634  0.96867331  0.99695097    -1.40800
C645        C  0.92895496  0.91363260  0.57414658     1.10700
C646        C  0.51542112  0.99102947  0.93259054     1.10800
C647        C  0.51562544  0.99108236  0.56106026     1.10800
C648        C  0.92870648  0.91355621  0.91988822     1.10700
C649        C  0.93040820  0.81452654  0.81850841    -0.17200
C650        C  0.93068579  0.83603266  0.84364554     0.06800
C651        C  0.93063136  0.86405905  0.86891676     0.08700
C652        C  0.93008146  0.88789838  0.89053464    -0.18100
C653        C  0.93045127  0.88801241  0.60352352    -0.17200
C654        C  0.93107799  0.86419945  0.62516770     0.06800
C655        C  0.93116091  0.83618542  0.65046077     0.08700
C656        C  0.93082432  0.81466169  0.67559495    -0.18100
C657        C  0.92555771  0.63802233  0.81887343    -0.17200
C658        C  0.92823446  0.61833454  0.84546310     0.06900
C659        C  0.93307972  0.59231747  0.87212467     0.08700
C660        C  0.93838013  0.56886471  0.89224187    -0.18100
C661        C  0.92613232  0.63815597  0.67506005    -0.17200
C662        C  0.92889988  0.61849035  0.64847966     0.06800
C663        C  0.93370694  0.59246613  0.62181619     0.08700
C664        C  0.93889358  0.56898700  0.60167831    -0.18100
C665        C  0.79028069  0.98247094  0.82030237    -0.17200
C666        C  0.80522536  0.98153747  0.85225108     0.06800
C667        C  0.82385647  0.97940034  0.88879374     0.08700
C668        C  0.84242733  0.97636563  0.91751233    -0.18100
C669        C  0.84259817  0.97648153  0.57662591    -0.17200
C670        C  0.82400705  0.97953782  0.60531262     0.06800
C671        C  0.80533965  0.98167506  0.64182270     0.08700
C672        C  0.79036209  0.98258445  0.67374959    -0.18100
C673        C  0.60762029  0.98212621  0.81967104    -0.17200
C674        C  0.59050625  0.98356136  0.84993015     0.06800
C675        C  0.56801959  0.98590628  0.88319560     0.08700
C676        C  0.54589868  0.98821784  0.90842618    -0.18100
C677        C  0.54614677  0.98832257  0.58518468    -0.17200
C678        C  0.56825717  0.98603496  0.61044279     0.06800
C679        C  0.59068653  0.98368897  0.64376745     0.08700
C680        C  0.60773865  0.98222976  0.67407341    -0.18100
loop_ 
_geom_bond_atom_site_label_1 
_geom_bond_atom_site_label_2 
_geom_bond_distance 
_geom_bond_site_symmetry_2 
_ccdc_geom_bond_type 
C1            N6   1.358       .  A
C1          N172   1.357       .  A
C1          C255   1.440       .  S
N2            C3   1.360       .  A
N2          C171   1.357       .  A
C3            N4   1.360       .  A
C3           C11   1.471       .  S
N4          C175   1.357       .  A
C5            N6   1.358       .  A
C5          N174   1.357       .  A
C5          C248   1.440       .  S
C7            N8   1.361       .  A
C7           N12   1.357       .  A
C7           C77   1.444       .  S
N8            C9   1.361       .  A
C9           N10   1.357       .  A
C9           C70   1.444       .  S
N10          C11   1.359       .  A
C11          N12   1.359       .  A
C13          N14   1.352       .  A
C13          N18   1.358       .  A
C13          C66   1.434       .  S
N14          C15   1.352       .  A
C15          N16   1.358       .  A
C15          C62   1.434       .  S
N16          C17   1.363       .  A
C17          N18   1.363       .  A
C17          C21   1.473       .  S
C19          N20   1.358       .  A
C19          N24   1.348       .  A
C19          C61   1.429       .  S
N20          C21   1.364       .  A
C21          N22   1.364       .  A
N22          C23   1.358       .  A
C23          N24   1.348       .  A
C23          C54   1.429       .  S
O25          C33   1.269       .  A
O25        Co215   1.894   1_545  S
O26          C34   1.254       .  A
O26         Co46   1.983       .  S
O27          C35   1.297       .  A
O27         Co47   2.083       .  S
O28          C36   1.264       .  A
O28        Co133   2.020   1_554  S
O29          C35   1.269       .  A
O29        Co216   1.894   1_545  S
O30          C36   1.254       .  A
O30         Co45   1.983       .  S
O31          C34   1.264       .  A
O31         Co48   2.020       .  S
O32          C33   1.297       .  A
O32        Co132   2.083   1_554  S
C33          C69   1.435       .  S
C34          C73   1.441       .  S
C35          C65   1.435       .  S
C36          C74   1.441       .  S
O37          C50   1.270       .  A
O37         Co45   2.018       .  S
O38         C391   1.241       .  A
O38         Co46   1.958       .  S
O39         C222   1.254   1_545  A
O39        Co472   2.010   1_454  S
O40          C53   1.257       .  A
O40         Co48   1.962       .  S
O41          C53   1.270       .  A
O41         Co46   2.018       .  S
O42         C392   1.241       .  A
O42         Co45   1.958       .  S
O43          C50   1.257       .  A
O43        Co133   1.962   1_554  S
O44         C221   1.254   1_545  A
O44        Co387   2.010   1_455  S
Co45        O195   1.894       .  S
Co45        O134   1.927   1_554  S
Co46        O199   1.894       .  S
Co46         O49   1.927       .  S
Co47        O117   2.083       .  S
Co47        O464   2.010       .  S
Co47        O384   2.010       .  S
Co47        O219   2.258   1_545  S
Co48        O113   2.020       .  S
Co48        O128   1.962       .  S
Co48         O49   2.104       .  S
O49        Co130   1.927       .  S
O49        Co217   2.257       .  S
C50          C58   1.430       .  S
C51          C81   1.438       .  S
C51         O378   1.241   1_455  A
C51         O214   1.254       .  A
C52          C82   1.438       .  S
C52         O209   1.254       .  A
C52         O382   1.241   1_455  A
C53          C57   1.430       .  S
C54          C55   1.203       .  T
C55          C56   1.408       .  S
C56          C57   1.203       .  T
C58          C59   1.203       .  T
C59          C60   1.408       .  S
C60          C61   1.203       .  T
C62          C63   1.205       .  T
C63          C64   1.411       .  S
C64          C65   1.205       .  T
C66          C67   1.205       .  T
C67          C68   1.411       .  S
C68          C69   1.205       .  T
C70          C71   1.210       .  T
C71          C72   1.420       .  S
C72          C73   1.210       .  T
C74          C75   1.210       .  T
C75          C76   1.420       .  S
C76          C77   1.210       .  T
C78         C175   1.440       .  S
C78          C79   1.208       .  T
C79          C80   1.415       .  S
C80          C81   1.208       .  T
C82          C83   1.208       .  T
C83          C84   1.415       .  S
C84          C85   1.208       .  T
C85         C171   1.440       .  S
C86         N257   1.357       .  A
C86          N91   1.358       .  A
C86         C340   1.440       .  S
N87         C256   1.357       .  A
N87          C88   1.360       .  A
C88          N89   1.360       .  A
C88          C96   1.471       .  S
N89         C260   1.357       .  A
C90         N259   1.357       .  A
C90          N91   1.358       .  A
C90         C333   1.440       .  S
C92          N93   1.361       .  A
C92          N97   1.357       .  A
C92         C162   1.444       .  S
N93          C94   1.361       .  A
C94          N95   1.357       .  A
C94         C155   1.444       .  S
N95          C96   1.359       .  A
C96          N97   1.359       .  A
C98          N99   1.352       .  A
C98         N103   1.358       .  A
C98         C151   1.434       .  S
N99         C100   1.352       .  A
C100        N101   1.358       .  A
C100        C147   1.434       .  S
N101        C102   1.363       .  A
C102        N103   1.363       .  A
C102        C106   1.473       .  S
C104        N105   1.358       .  A
C104        N109   1.348       .  A
C104        C146   1.429       .  S
N105        C106   1.364       .  A
C106        N107   1.364       .  A
N107        C108   1.358       .  A
C108        N109   1.348       .  A
C108        C139   1.429       .  S
O110        C118   1.269       .  A
O110       Co300   1.894   1_545  S
O111        C119   1.254       .  A
O111       Co131   1.983       .  S
O112        C120   1.297       .  A
O112       Co132   2.083       .  S
O113        C121   1.264       .  A
O114        C120   1.269       .  A
O114       Co301   1.894   1_545  S
O115        C121   1.254       .  A
O115       Co130   1.983       .  S
O116        C119   1.264       .  A
O116       Co133   2.020       .  S
O117        C118   1.297       .  A
C118        C154   1.435       .  S
C119        C158   1.441       .  S
C120        C150   1.435       .  S
C121        C159   1.441       .  S
O122        C135   1.270       .  A
O122       Co130   2.018       .  S
O123        C476   1.241       .  A
O123       Co131   1.958       .  S
O124        C307   1.254   1_545  A
O124       Co387   2.010   1_455  S
O125        C138   1.257       .  A
O125       Co133   1.962       .  S
O126        C138   1.270       .  A
O126       Co131   2.018       .  S
O127        C477   1.241       .  A
O127       Co130   1.958       .  S
O128        C135   1.257       .  A
O129        C306   1.254   1_545  A
O129       Co472   2.010   1_455  S
Co130       O280   1.894       .  S
Co131       O284   1.894       .  S
Co131       O134   1.927       .  S
Co132       O379   2.010   1_556  S
Co132       O469   2.010       .  S
Co132       O304   2.258   1_545  S
Co133       O134   2.104       .  S
O134       Co302   2.257       .  S
C135        C143   1.430       .  S
C136        C166   1.438       .  S
C136        O463   1.241   1_455  A
C136        O299   1.254       .  A
C137        C167   1.438       .  S
C137        O294   1.254       .  A
C137        O467   1.241   1_455  A
C138        C142   1.430       .  S
C139        C140   1.203       .  T
C140        C141   1.408       .  S
C141        C142   1.203       .  T
C143        C144   1.203       .  T
C144        C145   1.408       .  S
C145        C146   1.203       .  T
C147        C148   1.205       .  T
C148        C149   1.411       .  S
C149        C150   1.205       .  T
C151        C152   1.205       .  T
C152        C153   1.411       .  S
C153        C154   1.205       .  T
C155        C156   1.210       .  T
C156        C157   1.420       .  S
C157        C158   1.210       .  T
C159        C160   1.210       .  T
C160        C161   1.420       .  S
C161        C162   1.210       .  T
C163        C260   1.440       .  S
C163        C164   1.208       .  T
C164        C165   1.415       .  S
C165        C166   1.208       .  T
C167        C168   1.208       .  T
C168        C169   1.415       .  S
C169        C170   1.208       .  T
C170        C256   1.440       .  S
C171        N176   1.358       .  A
N172        C173   1.360       .  A
C173        N174   1.360       .  A
C173        C181   1.471       .  S
C175        N176   1.358       .  A
C177        N178   1.361       .  A
C177        N182   1.357       .  A
C177        C247   1.444       .  S
N178        C179   1.361       .  A
C179        N180   1.357       .  A
C179        C240   1.444       .  S
N180        C181   1.359       .  A
C181        N182   1.359       .  A
C183        N184   1.352       .  A
C183        N188   1.358       .  A
C183        C236   1.434       .  S
N184        C185   1.352       .  A
C185        N186   1.358       .  A
C185        C232   1.434       .  S
N186        C187   1.363       .  A
C187        N188   1.363       .  A
C187        C191   1.473       .  S
C189        N190   1.358       .  A
C189        N194   1.348       .  A
C189        C231   1.429       .  S
N190        C191   1.364       .  A
C191        N192   1.364       .  A
N192        C193   1.358       .  A
C193        N194   1.348       .  A
C193        C224   1.429       .  S
O195        C203   1.269       .  A
O196        C204   1.254       .  A
O196       Co216   1.983       .  S
O197        C205   1.297       .  A
O197       Co217   2.083       .  S
O198        C206   1.264       .  A
O198       Co303   2.020   1_554  S
O199        C205   1.269       .  A
O200        C206   1.254       .  A
O200       Co215   1.983       .  S
O201        C204   1.264       .  A
O201       Co218   2.020       .  S
O202        C203   1.297       .  A
O202       Co302   2.083   1_554  S
C203        C239   1.435       .  S
C204        C243   1.441       .  S
C205        C235   1.435       .  S
C206        C244   1.441       .  S
O207        C220   1.270       .  A
O207       Co215   2.018       .  S
O208        C561   1.241       .  A
O208       Co216   1.958       .  S
O209       Co642   2.010   1_454  S
O210        C223   1.257       .  A
O210       Co218   1.962       .  S
O211        C223   1.270       .  A
O211       Co216   2.018       .  S
O212        C562   1.241       .  A
O212       Co215   1.958       .  S
O213        C220   1.257       .  A
O213       Co303   1.962   1_554  S
O214       Co557   2.010   1_455  S
Co215       O304   1.927   1_554  S
Co216       O219   1.927       .  S
Co217       O287   2.083       .  S
Co217       O634   2.010       .  S
Co217       O554   2.010       .  S
Co218       O283   2.020       .  S
Co218       O298   1.962       .  S
Co218       O219   2.104       .  S
O219       Co300   1.927       .  S
C220        C228   1.430       .  S
C221        C251   1.438       .  S
C221        O548   1.241   1_455  A
C222        C252   1.438       .  S
C222        O552   1.241   1_455  A
C223        C227   1.430       .  S
C224        C225   1.203       .  T
C225        C226   1.408       .  S
C226        C227   1.203       .  T
C228        C229   1.203       .  T
C229        C230   1.408       .  S
C230        C231   1.203       .  T
C232        C233   1.205       .  T
C233        C234   1.411       .  S
C234        C235   1.205       .  T
C236        C237   1.205       .  T
C237        C238   1.411       .  S
C238        C239   1.205       .  T
C240        C241   1.210       .  T
C241        C242   1.420       .  S
C242        C243   1.210       .  T
C244        C245   1.210       .  T
C245        C246   1.420       .  S
C246        C247   1.210       .  T
C248        C249   1.208       .  T
C249        C250   1.415       .  S
C250        C251   1.208       .  T
C252        C253   1.208       .  T
C253        C254   1.415       .  S
C254        C255   1.208       .  T
C256        N261   1.358       .  A
N257        C258   1.360       .  A
C258        N259   1.360       .  A
C258        C266   1.471       .  S
C260        N261   1.358       .  A
C262        N263   1.361       .  A
C262        N267   1.357       .  A
C262        C332   1.444       .  S
N263        C264   1.361       .  A
C264        N265   1.357       .  A
C264        C325   1.444       .  S
N265        C266   1.359       .  A
C266        N267   1.359       .  A
C268        N269   1.352       .  A
C268        N273   1.358       .  A
C268        C321   1.434       .  S
N269        C270   1.352       .  A
C270        N271   1.358       .  A
C270        C317   1.434       .  S
N271        C272   1.363       .  A
C272        N273   1.363       .  A
C272        C276   1.473       .  S
C274        N275   1.358       .  A
C274        N279   1.348       .  A
C274        C316   1.429       .  S
N275        C276   1.364       .  A
C276        N277   1.364       .  A
N277        C278   1.358       .  A
C278        N279   1.348       .  A
C278        C309   1.429       .  S
O280        C288   1.269       .  A
O281        C289   1.254       .  A
O281       Co301   1.983       .  S
O282        C290   1.297       .  A
O282       Co302   2.083       .  S
O283        C291   1.264       .  A
O284        C290   1.269       .  A
O285        C291   1.254       .  A
O285       Co300   1.983       .  S
O286        C289   1.264       .  A
O286       Co303   2.020       .  S
O287        C288   1.297       .  A
C288        C324   1.435       .  S
C289        C328   1.441       .  S
C290        C320   1.435       .  S
C291        C329   1.441       .  S
O292        C305   1.270       .  A
O292       Co300   2.018       .  S
O293        C646   1.241       .  A
O293       Co301   1.958       .  S
O294       Co557   2.010   1_455  S
O295        C308   1.257       .  A
O295       Co303   1.962       .  S
O296        C308   1.270       .  A
O296       Co301   2.018       .  S
O297        C647   1.241       .  A
O297       Co300   1.958       .  S
O298        C305   1.257       .  A
O299       Co642   2.010   1_455  S
Co301       O304   1.927       .  S
Co302       O549   2.010   1_556  S
Co302       O639   2.010       .  S
Co303       O304   2.104       .  S
C305        C313   1.430       .  S
C306        C336   1.438       .  S
C306        O633   1.241   1_455  A
C307        C337   1.438       .  S
C307        O637   1.241   1_455  A
C308        C312   1.430       .  S
C309        C310   1.203       .  T
C310        C311   1.408       .  S
C311        C312   1.203       .  T
C313        C314   1.203       .  T
C314        C315   1.408       .  S
C315        C316   1.203       .  T
C317        C318   1.205       .  T
C318        C319   1.411       .  S
C319        C320   1.205       .  T
C321        C322   1.205       .  T
C322        C323   1.411       .  S
C323        C324   1.205       .  T
C325        C326   1.210       .  T
C326        C327   1.420       .  S
C327        C328   1.210       .  T
C329        C330   1.210       .  T
C330        C331   1.420       .  S
C331        C332   1.210       .  T
C333        C334   1.208       .  T
C334        C335   1.415       .  S
C335        C336   1.208       .  T
C337        C338   1.208       .  T
C338        C339   1.415       .  S
C339        C340   1.208       .  T
C341        N512   1.357       .  A
C341        N346   1.358       .  A
C341        C595   1.440       .  S
N342        C511   1.357       .  A
N342        C343   1.360       .  A
C343        N344   1.360       .  A
C343        C351   1.471       .  S
N344        C515   1.357       .  A
C345        N514   1.357       .  A
C345        N346   1.358       .  A
C345        C588   1.440       .  S
C347        N348   1.361       .  A
C347        N352   1.357       .  A
C347        C417   1.444       .  S
N348        C349   1.361       .  A
C349        N350   1.357       .  A
C349        C410   1.444       .  S
N350        C351   1.359       .  A
C351        N352   1.359       .  A
C353        N354   1.352       .  A
C353        N358   1.358       .  A
C353        C406   1.434       .  S
N354        C355   1.352       .  A
C355        N356   1.358       .  A
C355        C402   1.434       .  S
N356        C357   1.363       .  A
C357        N358   1.363       .  A
C357        C361   1.473       .  S
C359        N360   1.358       .  A
C359        N364   1.348       .  A
C359        C401   1.429       .  S
N360        C361   1.364       .  A
C361        N362   1.364       .  A
N362        C363   1.358       .  A
C363        N364   1.348       .  A
C363        C394   1.429       .  S
O365        C373   1.269       .  A
O365       Co555   1.894   1_545  S
O366        C374   1.254       .  A
O366       Co386   1.983       .  S
O367        C375   1.297       .  A
O367       Co387   2.083       .  S
O368        C376   1.264       .  A
O368       Co473   2.020   1_554  S
O369        C375   1.269       .  A
O369       Co556   1.894   1_545  S
O370        C376   1.254       .  A
O370       Co385   1.983       .  S
O371        C374   1.264       .  A
O371       Co388   2.020       .  S
O372        C373   1.297       .  A
O372       Co472   2.083   1_554  S
C373        C409   1.435       .  S
C374        C413   1.441       .  S
C375        C405   1.435       .  S
C376        C414   1.441       .  S
O377        C390   1.270       .  A
O377       Co385   2.018       .  S
O378       Co386   1.958       .  S
O379        C562   1.254   1_545  A
O380        C393   1.257       .  A
O380       Co388   1.962       .  S
O381        C393   1.270       .  A
O381       Co386   2.018       .  S
O382       Co385   1.958       .  S
O383        C390   1.257       .  A
O383       Co473   1.962   1_554  S
O384        C561   1.254   1_545  A
Co385       O535   1.894       .  S
Co385       O474   1.927   1_554  S
Co386       O539   1.894       .  S
Co386       O389   1.927       .  S
Co387       O457   2.083       .  S
Co387       O559   2.258   1_545  S
Co388       O453   2.020       .  S
Co388       O468   1.962       .  S
Co388       O389   2.104       .  S
O389       Co470   1.927       .  S
O389       Co557   2.258       .  S
C390        C398   1.430       .  S
C391        C421   1.438       .  S
C391        O554   1.254       .  A
C392        C422   1.438       .  S
C392        O549   1.254       .  A
C393        C397   1.430       .  S
C394        C395   1.203       .  T
C395        C396   1.408       .  S
C396        C397   1.203       .  T
C398        C399   1.203       .  T
C399        C400   1.408       .  S
C400        C401   1.203       .  T
C402        C403   1.205       .  T
C403        C404   1.411       .  S
C404        C405   1.205       .  T
C406        C407   1.205       .  T
C407        C408   1.411       .  S
C408        C409   1.205       .  T
C410        C411   1.210       .  T
C411        C412   1.420       .  S
C412        C413   1.210       .  T
C414        C415   1.210       .  T
C415        C416   1.420       .  S
C416        C417   1.210       .  T
C418        C515   1.440       .  S
C418        C419   1.208       .  T
C419        C420   1.415       .  S
C420        C421   1.208       .  T
C422        C423   1.208       .  T
C423        C424   1.415       .  S
C424        C425   1.208       .  T
C425        C511   1.440       .  S
C426        N597   1.357       .  A
C426        N431   1.358       .  A
C426        C680   1.440       .  S
N427        C596   1.357       .  A
N427        C428   1.360       .  A
C428        N429   1.360       .  A
C428        C436   1.471       .  S
N429        C600   1.357       .  A
C430        N599   1.357       .  A
C430        N431   1.358       .  A
C430        C673   1.440       .  S
C432        N433   1.361       .  A
C432        N437   1.357       .  A
C432        C502   1.444       .  S
N433        C434   1.361       .  A
C434        N435   1.357       .  A
C434        C495   1.444       .  S
N435        C436   1.359       .  A
C436        N437   1.359       .  A
C438        N439   1.352       .  A
C438        N443   1.358       .  A
C438        C491   1.434       .  S
N439        C440   1.352       .  A
C440        N441   1.358       .  A
C440        C487   1.434       .  S
N441        C442   1.363       .  A
C442        N443   1.363       .  A
C442        C446   1.473       .  S
C444        N445   1.358       .  A
C444        N449   1.348       .  A
C444        C486   1.429       .  S
N445        C446   1.364       .  A
C446        N447   1.364       .  A
N447        C448   1.358       .  A
C448        N449   1.348       .  A
C448        C479   1.429       .  S
O450        C458   1.269       .  A
O450       Co640   1.894   1_545  S
O451        C459   1.254       .  A
O451       Co471   1.983       .  S
O452        C460   1.297       .  A
O452       Co472   2.083       .  S
O453        C461   1.264       .  A
O454        C460   1.269       .  A
O454       Co641   1.894   1_545  S
O455        C461   1.254       .  A
O455       Co470   1.983       .  S
O456        C459   1.264       .  A
O456       Co473   2.020       .  S
O457        C458   1.297       .  A
C458        C494   1.435       .  S
C459        C498   1.441       .  S
C460        C490   1.435       .  S
C461        C499   1.441       .  S
O462        C475   1.270       .  A
O462       Co470   2.018       .  S
O463       Co471   1.958       .  S
O464        C647   1.254   1_545  A
O465        C478   1.257       .  A
O465       Co473   1.962       .  S
O466        C478   1.270       .  A
O466       Co471   2.018       .  S
O467       Co470   1.958       .  S
O468        C475   1.257       .  A
O469        C646   1.254   1_545  A
Co470       O620   1.894       .  S
Co471       O624   1.894       .  S
Co471       O474   1.927       .  S
Co472       O644   2.257   1_545  S
Co473       O474   2.104       .  S
O474       Co642   2.257       .  S
C475        C483   1.430       .  S
C476        C506   1.438       .  S
C476        O639   1.254       .  A
C477        C507   1.438       .  S
C477        O634   1.254       .  A
C478        C482   1.430       .  S
C479        C480   1.203       .  T
C480        C481   1.408       .  S
C481        C482   1.203       .  T
C483        C484   1.203       .  T
C484        C485   1.408       .  S
C485        C486   1.203       .  T
C487        C488   1.205       .  T
C488        C489   1.411       .  S
C489        C490   1.205       .  T
C491        C492   1.205       .  T
C492        C493   1.411       .  S
C493        C494   1.205       .  T
C495        C496   1.210       .  T
C496        C497   1.420       .  S
C497        C498   1.210       .  T
C499        C500   1.210       .  T
C500        C501   1.420       .  S
C501        C502   1.210       .  T
C503        C600   1.440       .  S
C503        C504   1.208       .  T
C504        C505   1.415       .  S
C505        C506   1.208       .  T
C507        C508   1.208       .  T
C508        C509   1.415       .  S
C509        C510   1.208       .  T
C510        C596   1.440       .  S
C511        N516   1.358       .  A
N512        C513   1.360       .  A
C513        N514   1.360       .  A
C513        C521   1.471       .  S
C515        N516   1.358       .  A
C517        N518   1.361       .  A
C517        N522   1.357       .  A
C517        C587   1.444       .  S
N518        C519   1.361       .  A
C519        N520   1.357       .  A
C519        C580   1.444       .  S
N520        C521   1.359       .  A
C521        N522   1.359       .  A
C523        N524   1.352       .  A
C523        N528   1.358       .  A
C523        C576   1.434       .  S
N524        C525   1.352       .  A
C525        N526   1.358       .  A
C525        C572   1.434       .  S
N526        C527   1.363       .  A
C527        N528   1.363       .  A
C527        C531   1.473       .  S
C529        N530   1.358       .  A
C529        N534   1.348       .  A
C529        C571   1.429       .  S
N530        C531   1.364       .  A
C531        N532   1.364       .  A
N532        C533   1.358       .  A
C533        N534   1.348       .  A
C533        C564   1.429       .  S
O535        C543   1.269       .  A
O536        C544   1.254       .  A
O536       Co556   1.983       .  S
O537        C545   1.297       .  A
O537       Co557   2.083       .  S
O538        C546   1.264       .  A
O538       Co643   2.020   1_554  S
O539        C545   1.269       .  A
O540        C546   1.254       .  A
O540       Co555   1.983       .  S
O541        C544   1.264       .  A
O541       Co558   2.020       .  S
O542        C543   1.297       .  A
O542       Co642   2.083   1_554  S
C543        C579   1.435       .  S
C544        C583   1.441       .  S
C545        C575   1.435       .  S
C546        C584   1.441       .  S
O547        C560   1.270       .  A
O547       Co555   2.018       .  S
O548       Co556   1.958       .  S
O550        C563   1.257       .  A
O550       Co558   1.962       .  S
O551        C563   1.270       .  A
O551       Co556   2.018       .  S
O552       Co555   1.958       .  S
O553        C560   1.257       .  A
O553       Co643   1.962   1_554  S
Co555       O644   1.927   1_554  S
Co556       O559   1.927       .  S
Co557       O627   2.083       .  S
Co558       O623   2.020       .  S
Co558       O638   1.962       .  S
Co558       O559   2.104       .  S
O559       Co640   1.927       .  S
C560        C568   1.430       .  S
C561        C591   1.438       .  S
C562        C592   1.438       .  S
C563        C567   1.430       .  S
C564        C565   1.203       .  T
C565        C566   1.408       .  S
C566        C567   1.203       .  T
C568        C569   1.203       .  T
C569        C570   1.408       .  S
C570        C571   1.203       .  T
C572        C573   1.205       .  T
C573        C574   1.411       .  S
C574        C575   1.205       .  T
C576        C577   1.205       .  T
C577        C578   1.411       .  S
C578        C579   1.205       .  T
C580        C581   1.210       .  T
C581        C582   1.420       .  S
C582        C583   1.210       .  T
C584        C585   1.210       .  T
C585        C586   1.420       .  S
C586        C587   1.210       .  T
C588        C589   1.208       .  T
C589        C590   1.415       .  S
C590        C591   1.208       .  T
C592        C593   1.208       .  T
C593        C594   1.415       .  S
C594        C595   1.208       .  T
C596        N601   1.358       .  A
N597        C598   1.360       .  A
C598        N599   1.360       .  A
C598        C606   1.471       .  S
C600        N601   1.358       .  A
C602        N603   1.361       .  A
C602        N607   1.357       .  A
C602        C672   1.444       .  S
N603        C604   1.361       .  A
C604        N605   1.357       .  A
C604        C665   1.444       .  S
N605        C606   1.359       .  A
C606        N607   1.359       .  A
C608        N609   1.352       .  A
C608        N613   1.358       .  A
C608        C661   1.434       .  S
N609        C610   1.352       .  A
C610        N611   1.358       .  A
C610        C657   1.434       .  S
N611        C612   1.363       .  A
C612        N613   1.363       .  A
C612        C616   1.473       .  S
C614        N615   1.358       .  A
C614        N619   1.348       .  A
C614        C656   1.429       .  S
N615        C616   1.364       .  A
C616        N617   1.364       .  A
N617        C618   1.358       .  A
C618        N619   1.348       .  A
C618        C649   1.429       .  S
O620        C628   1.269       .  A
O621        C629   1.254       .  A
O621       Co641   1.983       .  S
O622        C630   1.297       .  A
O622       Co642   2.083       .  S
O623        C631   1.264       .  A
O624        C630   1.269       .  A
O625        C631   1.254       .  A
O625       Co640   1.983       .  S
O626        C629   1.264       .  A
O626       Co643   2.020       .  S
O627        C628   1.297       .  A
C628        C664   1.435       .  S
C629        C668   1.441       .  S
C630        C660   1.435       .  S
C631        C669   1.441       .  S
O632        C645   1.270       .  A
O632       Co640   2.018       .  S
O633       Co641   1.958       .  S
O635        C648   1.257       .  A
O635       Co643   1.962       .  S
O636        C648   1.270       .  A
O636       Co641   2.018       .  S
O637       Co640   1.958       .  S
O638        C645   1.257       .  A
Co641       O644   1.927       .  S
Co643       O644   2.104       .  S
C645        C653   1.430       .  S
C646        C676   1.438       .  S
C647        C677   1.438       .  S
C648        C652   1.430       .  S
C649        C650   1.203       .  T
C650        C651   1.408       .  S
C651        C652   1.203       .  T
C653        C654   1.203       .  T
C654        C655   1.408       .  S
C655        C656   1.203       .  T
C657        C658   1.205       .  T
C658        C659   1.411       .  S
C659        C660   1.205       .  T
C661        C662   1.205       .  T
C662        C663   1.411       .  S
C663        C664   1.205       .  T
C665        C666   1.210       .  T
C666        C667   1.420       .  S
C667        C668   1.210       .  T
C669        C670   1.210       .  T
C670        C671   1.420       .  S
C671        C672   1.210       .  T
C673        C674   1.208       .  T
C674        C675   1.415       .  S
C675        C676   1.208       .  T
C677        C678   1.208       .  T
C678        C679   1.415       .  S
C679        C680   1.208       .  T
