geometry optimzed in LAMMPS
_audit_creation_date              2020-11-30 
_audit_creation_method            'lammps2cif' 
_symmetry_space_group_name_H-M    'P1' 
_symmetry_Int_Tables_number       1 
_symmetry_cell_setting            triclinic 
loop_ 
_symmetry_equiv_pos_as_xyz 
  x,y,z 
_cell_length_a                    57.447745183481764 
_cell_length_b                    57.21143719136637 
_cell_length_c                    29.314050249153908 
_cell_angle_alpha                 89.86255957448887 
_cell_angle_beta                  89.898202670588 
_cell_angle_gamma                 120.35217421235552 
loop_ 
_atom_site_label 
_atom_site_type_symbol 
_atom_site_fract_x 
_atom_site_fract_y 
_atom_site_fract_z 
_atom_site_charge 
O1          O  0.48323767  0.91287533  0.05171127    -0.86250
O2          O  0.46028704  0.86051708  0.07803204    -0.83300
C3          C  0.46161199  0.84766615  0.11173054     0.97210
O4          O  0.45203310  0.84899037  0.15014855    -0.83330
O5          O  0.47778873  0.89477137  0.19952843    -0.85980
C6          C  0.48901790  0.91966719  0.20774315     1.01740
O7          O  0.47475262  0.92981760  0.20027685    -0.78740
O8          O  0.50005579  0.93384275  0.11761387    -0.78930
C9          C  0.50311526  0.92788490  0.07770269     1.01690
O10         O  0.42773357  0.90566805  0.05300798    -0.86250
O11         O  0.40737941  0.85360788  0.07836974    -0.83310
C12         C  0.39249339  0.84539511  0.11343453     0.97230
O13         O  0.40226730  0.85150900  0.15310824    -0.83340
O14         O  0.42464360  0.89632055  0.20519745    -0.85950
C15         C  0.41930170  0.91349270  0.18657732     1.01700
O16         O  0.43212664  0.92693241  0.15210660    -0.78760
O17         O  0.46303068  0.94193350  0.07343369    -0.78910
C18         C  0.44044787  0.93098440  0.05560467     1.01670
Cr19       Cr  0.44500657  0.88399081  0.06896668     1.93740
Cr20       Cr  0.43987131  0.87423815  0.17441739     1.93210
Cr21       Cr  0.46643019  0.93089525  0.13541677     1.39100
O22         O  0.45001533  0.89556025  0.12590470    -1.24000
O23         O  0.29622348  0.97286462  0.01058206    -0.86250
O24         O  0.31591081  0.01618993  0.07307352    -0.83300
C25         C  0.32886684  0.00994655  0.10150355     0.97210
O26         O  0.34828391  0.00775123  0.08725554    -0.83330
O27         O  0.38837423  0.00740110  0.03908370    -0.85980
C28         C  0.37847981  0.98299734  0.02712701     1.01740
O29         O  0.35761029  0.97211544  0.00302569    -0.78740
O30         O  0.31511277  0.96600700  0.45147625    -0.78930
C31         C  0.29726606  0.95664133  0.98250173     1.01690
O32         O  0.31037704  0.00944097  0.43058704    -0.86250
O33         O  0.33579975  0.05296263  0.49261228    -0.83310
C34         C  0.35406218  0.06921150  0.51943238     0.97230
O35         O  0.36237754  0.05986610  0.05033011    -0.83340
O36         O  0.39783048  0.05543705  0.49359360    -0.85950
C37         C  0.40849838  0.04615762  0.46749107     1.01700
O38         O  0.39489536  0.02160704  0.45474787    -0.78760
O39         O  0.35108714  0.01861236  0.41279632    -0.78910
C40         C  0.32897748  0.01610476  0.40063187     1.01670
Cr41       Cr  0.31636137  0.01288158  0.50164599     1.93740
Cr42       Cr  0.37238907  0.03142418  0.04028670     1.93210
Cr43       Cr  0.35398545  0.99567156  0.45798512     1.39100
O44         O  0.34743599  0.01323787  0.49997841    -1.24000
O45         O  0.30813892  0.01006076  0.32259219    -0.86250
O46         O  0.33633593  0.05325904  0.25699099    -0.83300
C47         C  0.35362219  0.06802084  0.22727035     0.97210
O48         O  0.36223810  0.05720755  0.19861909    -0.83330
O49         O  0.39842417  0.05180213  0.24772175    -0.85980
C50         C  0.40650135  0.04578292  0.28309420     1.01740
O51         O  0.39160001  0.02352507  0.30332760    -0.78740
O52         O  0.35018163  0.02773623  0.33184297    -0.78930
C53         C  0.32805659  0.01978490  0.35006700     1.01690
O54         O  0.29488021  0.97444265  0.24336416    -0.86250
O55         O  0.31525849  0.01704596  0.17903728    -0.83310
C56         C  0.32584238  0.00729827  0.15233826     0.97230
O57         O  0.34029687  0.99936655  0.17026458    -0.83340
O58         O  0.38038043  0.99702235  0.21444877    -0.85950
C59         C  0.37088231  0.97504824  0.23738522     1.01700
O60         O  0.35513840  0.97049551  0.27008429    -0.78760
O61         O  0.31183476  0.96840690  0.30619609    -0.78910
C62         C  0.29535682  0.95858225  0.27280439     1.01670
Cr63       Cr  0.31519351  0.01365539  0.25076538     1.93740
Cr64       Cr  0.36880441  0.02541747  0.20953863     1.93210
Cr65       Cr  0.35156264  0.99848208  0.30124948     1.39100
O66         O  0.34538089  0.01207824  0.25321147    -1.24000
O67         O  0.18454314  0.80454239  0.06127821    -0.86250
O68         O  0.17267543  0.78999810  0.15164638    -0.83300
C69         C  0.17442548  0.78691380  0.19370133     0.97210
O70         O  0.19711575  0.79273332  0.21067690    -0.83330
O71         O  0.21207727  0.75808399  0.17075644    -0.85980
C72         C  0.21538829  0.74583995  0.13780253     1.01740
O73         O  0.22558145  0.75813463  0.10042194    -0.78740
O74         O  0.19138167  0.77060292  0.05476485    -0.78930
C75         C  0.17713028  0.78111565  0.04697471     1.01690
O76         O  0.23271188  0.85098383  0.08921522    -0.86250
O77         O  0.21650176  0.84091958  0.17915264    -0.83310
C78         C  0.23962868  0.85062051  0.19629880     0.97230
O79         O  0.25176107  0.83758252  0.19147786    -0.83340
O80         O  0.26605527  0.80128208  0.15863326    -0.85950
C81         C  0.27937148  0.81005974  0.12195878     1.01700
O82         O  0.26835772  0.81236870  0.08641913    -0.78760
O83         O  0.23559592  0.82558133  0.03594346    -0.78910
C84         C  0.23884791  0.84832580  0.04908387     1.01670
Cr85       Cr  0.20305131  0.82027871  0.12063045     1.93740
Cr86       Cr  0.23103318  0.79785150  0.17875349     1.93210
Cr87       Cr  0.22967822  0.79253357  0.07311403     1.39100
O88         O  0.22149152  0.80337688  0.12404082    -1.24000
O89         O  0.38675057  0.22998285  0.39776320    -0.86250
O90         O  0.38797760  0.21858703  0.30677750    -0.83300
C91         C  0.40364838  0.24215444  0.29155239     0.97210
O92         O  0.42879425  0.25297582  0.29680057    -0.83330
O93         O  0.47643823  0.26812516  0.34251361    -0.85980
C94         C  0.47675644  0.28257559  0.37566888     1.01740
O95         O  0.46000556  0.27162598  0.40799930    -0.78740
O96         O  0.41301291  0.23418735  0.45463937    -0.78930
C97         C  0.39381050  0.23651219  0.43859842     1.01690
O98         O  0.38679669  0.18193665  0.42316215    -0.86250
O99         O  0.39336428  0.17316537  0.33425522    -0.83310
C100        C  0.40197298  0.17586967  0.29403627     0.97230
O101        O  0.42048293  0.19904156  0.28038172    -0.83340
O102        O  0.46618960  0.21355627  0.33518122    -0.85950
C103        C  0.48178214  0.22117490  0.36930416     1.01700
O104        O  0.47705073  0.23240709  0.40245712    -0.78760
O105        O  0.42786866  0.19377162  0.44257883    -0.78910
C106        C  0.40275509  0.17735137  0.44571390     1.01670
Cr107      Cr  0.39161931  0.20254379  0.36561982     1.93740
Cr108      Cr  0.44645492  0.23251716  0.31749484     1.93210
Cr109      Cr  0.44322933  0.23220956  0.42258919     1.39100
O110        O  0.42715751  0.22245339  0.36865281    -1.24000
O111        O  0.10698118  0.53966876  0.20706628    -0.86250
O112        O  0.15786320  0.55680385  0.16803049    -0.83300
C113        C  0.17452074  0.56250265  0.13566801     0.97210
O114        O  0.17679830  0.57953721  0.10552728    -0.83330
O115        O  0.13259993  0.54482901  0.05756306    -0.85980
C116        C  0.10799665  0.52939840  0.05034383     1.01740
O117        O  0.09227840  0.53832121  0.05675074    -0.78740
O118        O  0.09091209  0.52104246  0.14164809    -0.78930
C119        C  0.09057054  0.51903121  0.18376837     1.01690
O120        O  0.11838678  0.59522402  0.19871508    -0.86250
O121        O  0.16968811  0.61375651  0.16723937    -0.83310
C122        C  0.17196702  0.62967085  0.13456888     0.97230
O123        O  0.16171392  0.62056867  0.09613448    -0.83340
O124        O  0.11956800  0.58924274  0.04017326    -0.85950
C125        C  0.10040634  0.59236113  0.05554937     1.01700
O126        O  0.09003525  0.58297146  0.09365198    -0.78760
O127        O  0.08030823  0.56087306  0.17801594    -0.78910
C128        C  0.09304455  0.58384168  0.19607546     1.01670
Cr129      Cr  0.13790695  0.57609016  0.18203258     1.93740
Cr130      Cr  0.14635296  0.58280292  0.07744577     1.93210
Cr131      Cr  0.09040584  0.55192571  0.11800583     1.39100
O132        O  0.12523153  0.57109968  0.12605837    -1.24000
O133        O  0.96771865  0.30306243  0.48685337    -0.86250
O134        O  0.01201982  0.31959793  0.42536421    -0.83300
C135        C  0.00647302  0.33234727  0.39558712     0.97210
O136        O  0.00329689  0.35148303  0.40858845    -0.83330
O137        O  0.00150757  0.39309091  0.45347184    -0.85980
C138        C  0.97841073  0.38519543  0.47142259     1.01740
O139        O  0.96870078  0.36536473  0.49818580    -0.78740
O140        O  0.96262337  0.32256611  0.04714712    -0.78930
C141        C  0.95238573  0.30446617  0.51642949     1.01690
O142        O  0.00243482  0.31590272  0.06708053    -0.86250
O143        O  0.04600849  0.33896671  0.00568532    -0.83310
C144        C  0.06342105  0.35849894  0.98214359     0.97230
O145        O  0.05571393  0.36727335  0.44889824    -0.83340
O146        O  0.05179251  0.40436830  0.99578160    -0.85950
C147        C  0.04361145  0.41538588  0.02286664     1.01700
O148        O  0.01987298  0.40216753  0.03903303    -0.78760
O149        O  0.01822975  0.35851883  0.07970331    -0.78910
C150        C  0.01110650  0.33553371  0.09529629     1.01670
Cr151      Cr  0.00709263  0.32122225  0.99596110     1.93740
Cr152      Cr  0.02668453  0.37725042  0.45350124     1.93210
Cr153      Cr  0.99339724  0.36139739  0.03898010     1.39100
O154        O  0.00877095  0.35323060  0.99553366    -1.24000
O155        O  0.00598133  0.31561634  0.17348579    -0.86250
O156        O  0.04852254  0.34620204  0.23442996    -0.83300
C157        C  0.06249353  0.36426700  0.26314319     0.97210
O158        O  0.05062332  0.36983672  0.29477257    -0.83330
O159        O  0.03530556  0.39996641  0.24905092    -0.85980
C160        C  0.02284307  0.40796735  0.22494135     1.01740
O161        O  0.00007593  0.39074354  0.20833133    -0.78740
O162        O  0.00854146  0.35450607  0.16165153    -0.78930
C163        C  0.00898326  0.33442770  0.14596019     1.01690
O164        O  0.97202382  0.29344411  0.25493376    -0.86250
O165        O  0.01539224  0.32033329  0.31693814    -0.83310
C166        C  0.00355307  0.32820747  0.34504363     0.97230
O167        O  0.99218161  0.33961135  0.32829844    -0.83340
O168        O  0.98347742  0.37711180  0.29186775    -0.85950
C169        C  0.95965096  0.36343598  0.27642514     1.01700
O170        O  0.95378976  0.34446004  0.24934875    -0.78760
O171        O  0.95935433  0.30887883  0.19793843    -0.78910
C172        C  0.95335514  0.29258181  0.23132095     1.01670
Cr173      Cr  0.01000039  0.32015077  0.24482022     1.93740
Cr174      Cr  0.01477007  0.36999232  0.28969439     1.93210
Cr175      Cr  0.98171741  0.34935227  0.20579309     1.39100
O176        O  0.00251473  0.34681271  0.24604316    -1.24000
O177        O  0.54010187  0.12343537  0.29372962    -0.86250
O178        O  0.55866366  0.17262544  0.33367117    -0.83300
C179        C  0.56146303  0.18705362  0.36816500     0.97210
O180        O  0.57513479  0.18681682  0.40189310    -0.83330
O181        O  0.53846259  0.14015436  0.44588991    -0.85980
C182        C  0.52352399  0.11497543  0.45101154     1.01740
O183        O  0.53352958  0.10046101  0.44241809    -0.78740
O184        O  0.51762256  0.10223549  0.35587140    -0.78930
C185        C  0.51788461  0.10825136  0.31462165     1.01690
O186        O  0.59497195  0.12969663  0.30845464    -0.86250
O187        O  0.61354828  0.18127754  0.34037731    -0.83310
C188        C  0.62738576  0.18278649  0.37522572     0.97230
O189        O  0.61613784  0.17196096  0.41260409    -0.83340
O190        O  0.58314318  0.12742643  0.46307209    -0.85950
C191        C  0.58673207  0.10888699  0.44605880     1.01700
O192        O  0.57808744  0.09964629  0.40697999    -0.78760
O193        O  0.55779675  0.09313515  0.32072288    -0.78910
C194        C  0.58214231  0.10410775  0.31017133     1.01670
Cr195      Cr  0.57641757  0.15099731  0.32213203     1.93740
Cr196      Cr  0.57748948  0.15541074  0.42790259     1.93210
Cr197      Cr  0.54790110  0.10093530  0.38124272     1.39100
O198        O  0.56764736  0.13629145  0.37702821    -1.24000
O199        O  0.71910194  0.05834936  0.23715435    -0.86250
O200        O  0.70603351  0.02925076  0.31913151    -0.83300
C201        C  0.69045490  0.01518575  0.35145476     0.97210
O202        O  0.66761379  0.99609118  0.34150674    -0.83330
O203        O  0.64403204  0.02999000  0.32454071    -0.85980
C204        C  0.63583287  0.04282662  0.30005744     1.01740
O205        O  0.63449636  0.04021608  0.25754987    -0.78740
O206        O  0.68764149  0.06945716  0.23753193    -0.78930
C207        C  0.71214453  0.07608266  0.24002210     1.01690
O208        O  0.69581519  0.00949414  0.18286922    -0.86250
O209        O  0.68227792  0.97832427  0.26318156    -0.83310
C210        C  0.65760120  0.95960742  0.26202160     0.97230
O211        O  0.63868653  0.96406042  0.27032799    -0.83340
O212        O  0.60980311  0.98913325  0.26188464    -0.85950
C213        C  0.60565122  0.98659212  0.21963338     1.01700
O214        O  0.62508241  0.00034963  0.19193410    -0.78760
O215        O  0.68024004  0.03598712  0.16405800    -0.78910
C216        C  0.69008258  0.02170170  0.15248893     1.01670
Cr217      Cr  0.69842537  0.01854019  0.25119247     1.93740
Cr218      Cr  0.64234569  0.99684793  0.29657410     1.93210
Cr219      Cr  0.65766914  0.03476443  0.21543540     1.39100
O220        O  0.66633532  0.01652396  0.25380008    -1.24000
O221        O  0.70809867  0.02473790  0.07393247    -0.86250
O222        O  0.68313216  0.98127535  0.01292735    -0.83300
C223        C  0.66627318  0.96471037  0.98488265     0.97210
O224        O  0.65763992  0.97367034  0.45317418    -0.83330
O225        O  0.62155606  0.98122225  0.00171668    -0.85980
C226        C  0.61299832  0.99107451  0.03110992     1.01740
O227        O  0.62718863  0.01515286  0.04393422    -0.78740
O228        O  0.66638419  0.01234287  0.08648912    -0.78930
C229        C  0.68847876  0.01716566  0.10220019     1.01690
O230        O  0.72429550  0.06031373  0.49249146    -0.86250
O231        O  0.70461286  0.01576916  0.43132127    -0.83310
C232        C  0.69341508  0.02284481  0.40063084     0.97230
O233        O  0.67648872  0.02893649  0.41346852    -0.83340
O234        O  0.63599433  0.03091789  0.45649393    -0.85950
C235        C  0.64473367  0.05436328  0.47291522     1.01700
O236        O  0.66409259  0.06383029  0.50079301    -0.78760
O237        O  0.70570127  0.06689882  0.05231615    -0.78910
C238        C  0.72324608  0.07636909  0.52089017     1.01670
Cr239      Cr  0.70355433  0.02069488  0.00240807     1.93740
Cr240      Cr  0.64968705  0.00476708  0.45818772     1.93210
Cr241      Cr  0.66666112  0.03862300  0.04363789     1.39100
O242        O  0.67323867  0.02157482  0.00101380    -1.24000
O243        O  0.84726069  0.24041409  0.35128121    -0.86250
O244        O  0.83161792  0.22280546  0.43942360    -0.83300
C245        C  0.84220180  0.24645534  0.45462257     0.97210
O246        O  0.83012685  0.25950684  0.44766760    -0.83330
O247        O  0.79625931  0.27522195  0.40534124    -0.85980
C248        C  0.80711788  0.28886014  0.36962876     1.01740
O249        O  0.81298798  0.27816982  0.33772348    -0.78740
O250        O  0.82631694  0.24507865  0.29268316    -0.78930
C251        C  0.84796543  0.24913597  0.31150582     1.01690
O252        O  0.80307890  0.19447696  0.31676837    -0.86250
O253        O  0.78278201  0.18018926  0.40551614    -0.83310
C254        C  0.77746947  0.18240716  0.44651370     0.97230
O255        O  0.78296294  0.20538471  0.46221574    -0.83340
O256        O  0.75217669  0.22179684  0.41319779    -0.85950
C257        C  0.74279018  0.22632480  0.37732692     1.01700
O258        O  0.75751267  0.23734844  0.34267083    -0.78760
O259        O  0.76975287  0.20080159  0.30428312    -0.78910
C260        C  0.78026215  0.18621089  0.29994505     1.01670
Cr261      Cr  0.81489858  0.21076963  0.37806499     1.93740
Cr262      Cr  0.79106826  0.23990557  0.42866441     1.93210
Cr263      Cr  0.79208412  0.23954015  0.32309700     1.39100
O264        O  0.79905643  0.23016531  0.37657844    -1.24000
O265        O  0.90099858  0.48709670  0.44241552    -0.86250
O266        O  0.85301455  0.46554174  0.39986210    -0.83300
C267        C  0.84674098  0.47121274  0.36175385     0.97210
O268        O  0.85452750  0.46612123  0.32482779    -0.83330
O269        O  0.90518910  0.49155713  0.29087258    -0.85980
C270        C  0.93026283  0.50118748  0.28982903     1.01740
O271        O  0.93851461  0.48631839  0.30432351    -0.78740
O272        O  0.93044588  0.50767282  0.38591222    -0.78930
C273        C  0.91801469  0.50859086  0.42101310     1.01690
O274        O  0.89570514  0.43112763  0.44035713    -0.86250
O275        O  0.84849893  0.41282501  0.39718455    -0.83310
C276        C  0.84188674  0.40176410  0.35848618     0.97230
O277        O  0.85170383  0.41528235  0.32255804    -0.83340
O278        O  0.90188571  0.43668176  0.28885722    -0.85950
C279        C  0.91406280  0.42775813  0.31365662     1.01700
O280        O  0.92533723  0.43933957  0.35061540    -0.78760
O281        O  0.93246813  0.46805209  0.43335910    -0.78910
C282        C  0.92086767  0.44410555  0.44560163     1.01670
Cr283      Cr  0.87581069  0.44975029  0.41689803     1.93740
Cr284      Cr  0.87950791  0.45297649  0.31015105     1.93210
Cr285      Cr  0.92950494  0.47431609  0.36824359     1.39100
O286        O  0.89405816  0.45875962  0.36501423    -1.24000
O287        O  0.05081618  0.73112234  0.24068048    -0.86250
O288        O  0.00626089  0.70925597  0.18156182    -0.83300
C289        C  0.01291666  0.69670432  0.15295677     0.97210
O290        O  0.01673040  0.67841740  0.16759672    -0.83330
O291        O  0.02120076  0.64035202  0.21235108    -0.85980
C292        C  0.04584788  0.65115555  0.22298800     1.01740
O293        O  0.05644346  0.67259479  0.24583824    -0.78740
O294        O  0.06099782  0.71435262  0.29884921    -0.78930
C295        C  0.06832042  0.73201408  0.26767396     1.01690
O296        O  0.01695569  0.71619879  0.32338448    -0.86250
O297        O  0.97233032  0.68880871  0.26542546    -0.83310
C298        C  0.95547939  0.67091696  0.23891059     0.97230
O299        O  0.96411726  0.66134896  0.20862167    -0.83340
O300        O  0.97361475  0.62756221  0.26255239    -0.85950
C301        C  0.98603797  0.61764993  0.28237763     1.01700
O302        O  0.00998933  0.63351264  0.29603350    -0.78760
O303        O  0.01177658  0.67666957  0.34214912    -0.78910
C304        C  0.01273603  0.69833081  0.35375487     1.01670
Cr305      Cr  0.01169206  0.70956545  0.25286344     1.93740
Cr306      Cr  0.99493207  0.65382121  0.21492375     1.93210
Cr307      Cr  0.03338769  0.67477709  0.29359917     1.39100
O308        O  0.01315710  0.67938442  0.25423375    -1.24000
O309        O  0.01933995  0.71920480  0.43163753    -0.86250
O310        O  0.97445221  0.69450931  0.49208639    -0.83300
C311        C  0.95727384  0.67450033  0.51491760     0.97210
O312        O  0.96528614  0.66586880  0.04841485    -0.83330
O313        O  0.96743625  0.62847472  0.50345524    -0.85980
C314        C  0.97314984  0.61822731  0.47145848     1.01740
O315        O  0.99564363  0.63136304  0.45092259    -0.78740
O316        O  0.99777827  0.67670473  0.42154861    -0.78930
C317        C  0.00848736  0.69936212  0.40381173     1.01690
O318        O  0.05172831  0.72888238  0.01412048    -0.86250
O319        O  0.00741513  0.71108280  0.07435664    -0.83310
C320        C  0.01415418  0.69812350  0.10183377     0.97230
O321        O  0.01947377  0.68130860  0.08493798    -0.83340
O322        O  0.01954994  0.63889736  0.03830034    -0.85950
C323        C  0.04117265  0.64563116  0.01517629     1.01700
O324        O  0.04878936  0.66371330  0.98546627    -0.78760
O325        O  0.05664537  0.71000767  0.45200026    -0.78910
C326        C  0.06675117  0.72569219  0.98656067     1.01670
Cr327      Cr  0.01311154  0.71177952  0.50307649     1.93740
Cr328      Cr  0.99429594  0.65528034  0.04262545     1.93210
Cr329      Cr  0.02386955  0.67131905  0.45381958     1.39100
O330        O  0.01113321  0.67938918  0.50088319    -1.24000
O331        O  0.57645028  0.50798587  0.40669137    -0.86250
O332        O  0.55987486  0.49497626  0.32003059    -0.83300
C333        C  0.58449841  0.50535735  0.30999101     0.97210
O334        O  0.59492246  0.49068118  0.31218932    -0.83330
O335        O  0.60895083  0.45661388  0.35062309    -0.85980
C336        C  0.62288040  0.46947658  0.38512376     1.01740
O337        O  0.61085280  0.47065054  0.42044623    -0.78740
O338        O  0.57812608  0.48542563  0.46609374    -0.78930
C339        C  0.58226943  0.50757422  0.44766489     1.01690
O340        O  0.52883350  0.46394776  0.44138584    -0.86250
O341        O  0.51486727  0.44614426  0.35423857    -0.83310
C342        C  0.51551389  0.43641198  0.31636701     0.97230
O343        O  0.53807118  0.44357967  0.29667561    -0.83340
O344        O  0.55288985  0.41255812  0.34206391    -0.85950
C345        C  0.55361641  0.40020563  0.37700855     1.01700
O346        O  0.56624114  0.41395399  0.41200577    -0.78760
O347        O  0.53229008  0.42868193  0.44965866    -0.78910
C348        C  0.51780641  0.43935800  0.45162227     1.01670
Cr349      Cr  0.54604110  0.47710598  0.38042018     1.93740
Cr350      Cr  0.57319337  0.45149500  0.32851900     1.93210
Cr351      Cr  0.57151775  0.45028477  0.43394061     1.39100
O352        O  0.56383574  0.45946719  0.38096486    -1.24000
O353        O  0.35295831  0.39896210  0.25721373    -0.86250
O354        O  0.30837312  0.36008419  0.30011272    -0.83300
C355        C  0.29147293  0.35248420  0.26745647     0.97210
O356        O  0.29032207  0.33522209  0.23929709    -0.83330
O357        O  0.30800117  0.30816601  0.17927716    -0.85980
C358        C  0.31939056  0.32769876  0.15085167     1.01740
O359        O  0.33533217  0.35042256  0.16694908    -0.78740
O360        O  0.37808729  0.39358836  0.20710237    -0.78930
C361        C  0.37148754  0.40875294  0.22818802     1.01690
O362        O  0.38792727  0.38271680  0.29653781    -0.86250
O363        O  0.34264559  0.34053400  0.33732820    -0.83310
C364        C  0.31955283  0.32289562  0.35065594     0.97230
O365        O  0.30084170  0.31228689  0.32093644    -0.83340
O366        O  0.32683891  0.29373933  0.26147107    -0.85950
C367        C  0.34599426  0.29651069  0.23638201     1.01700
O368        O  0.35418493  0.31351700  0.20327809    -0.78760
O369        O  0.39316797  0.35770935  0.24547854    -0.78910
C370        C  0.40289338  0.37581167  0.27528148     1.01670
Cr371      Cr  0.34728754  0.36862799  0.29562391     1.93740
Cr372      Cr  0.30836831  0.31430415  0.25026931     1.93210
Cr373      Cr  0.36323663  0.35297673  0.20750572     1.39100
O374        O  0.34013937  0.34545019  0.25165342    -1.24000
O375        O  0.29860215  0.30923977  0.42953954    -0.86250
O376        O  0.32542081  0.29095374  0.48989277    -0.83300
C377        C  0.34321423  0.29196910  0.51634025     0.97210
O378        O  0.35328758  0.31037091  0.04672862    -0.83330
O379        O  0.39178482  0.35295423  0.49696815    -0.85980
C380        C  0.40085034  0.37050689  0.46581443     1.01740
O381        O  0.38498236  0.37610508  0.44542095    -0.78740
O382        O  0.34065412  0.33173077  0.41897464    -0.78930
C383        C  0.31825404  0.31874139  0.40138820     1.01690
O384        O  0.28822173  0.33134375  0.01197470    -0.86250
O385        O  0.30766800  0.30698827  0.07237198    -0.83310
C386        C  0.32037900  0.32696537  0.09967779     0.97230
O387        O  0.33827364  0.34894763  0.08325070    -0.83340
O388        O  0.37871703  0.39032665  0.03570798    -0.85950
C389        C  0.37349517  0.40608726  0.01295053     1.01700
O390        O  0.35509121  0.39647773  0.98352583    -0.78760
O391        O  0.30683109  0.35657482  0.45110882    -0.78910
C392        C  0.29060326  0.34945223  0.98465469     1.01670
Cr393      Cr  0.30681636  0.31125715  0.50085961     1.93740
Cr394      Cr  0.36357626  0.34988618  0.03888921     1.93210
Cr395      Cr  0.34568454  0.36326405  0.45128402     1.39100
O396        O  0.33869337  0.34242329  0.49833213    -1.24000
O397        O  0.45726262  0.53307705  0.18596663    -0.86250
O398        O  0.44103517  0.51845395  0.09800063    -0.83300
C399        C  0.43450797  0.51889524  0.05721704     0.97210
O400        O  0.43950349  0.54107292  0.03812244    -0.83330
O401        O  0.40755281  0.55774924  0.08064975    -0.85980
C402        C  0.39587810  0.55918691  0.11641140     1.01740
O403        O  0.40984553  0.57277555  0.15033562    -0.78740
O404        O  0.42361602  0.53968446  0.19199908    -0.78930
C405        C  0.43296038  0.52424454  0.19639443     1.01690
O406        O  0.50272860  0.58105997  0.15004140    -0.86250
O407        O  0.48875131  0.56045703  0.06367830    -0.83310
C408        C  0.50023456  0.58442499  0.05003787     0.97230
O409        O  0.48685729  0.59646478  0.05073029    -0.83340
O410        O  0.45366271  0.61396789  0.08610100    -0.85950
C411        C  0.46584179  0.62841626  0.12069684     1.01700
O412        O  0.46621324  0.61708012  0.15733397    -0.78760
O413        O  0.47995666  0.58604149  0.20563774    -0.78910
C414        C  0.50227864  0.59255933  0.18611283     1.01670
Cr415      Cr  0.47137108  0.54965640  0.12465838     1.93740
Cr416      Cr  0.44730164  0.57683570  0.06739054     1.93210
Cr417      Cr  0.44547680  0.57814118  0.17298096     1.39340
O418        O  0.45439408  0.56828460  0.12158125    -1.24000
O419        O  0.66873850  0.63100508  0.49253611    -0.86250
O420        O  0.71107824  0.66688287  0.04615818    -0.83300
C421        C  0.72925897  0.67635091  0.51570725     0.97210
O422        O  0.72962454  0.69308273  0.48726075    -0.83330
O423        O  0.71165730  0.71975695  0.42783173    -0.85980
C424        C  0.69802941  0.70120801  0.39861798     1.01740
O425        O  0.67888277  0.67923283  0.41262317    -0.78740
O426        O  0.63909258  0.63635952  0.45573673    -0.78930
C427        C  0.64735681  0.62082539  0.46975699     1.01690
O428        O  0.63200915  0.64168581  0.03969858    -0.86250
O429        O  0.67419018  0.68193357  0.08456560    -0.83310
C430        C  0.69622523  0.70081146  0.09876221     0.97230
O431        O  0.71572443  0.71327621  0.07025253    -0.83340
O432        O  0.69300811  0.73386241  0.01097575    -0.85950
C433        C  0.67481166  0.73364107  0.98714448     1.01700
O434        O  0.66428189  0.71618584  0.45564064    -0.78760
O435        O  0.62750888  0.67252620  0.00537208    -0.78910
C436        C  0.61691407  0.65062741  0.02713301     1.01670
Cr437      Cr  0.67229706  0.65728867  0.03873127     1.93740
Cr438      Cr  0.71073271  0.71315453  0.99886455     1.93210
Cr439      Cr  0.65437222  0.67685946  0.45919426     1.39100
O440        O  0.67915877  0.68251704  0.99884425    -1.24000
O441        O  0.71081204  0.72165079  0.31974927    -0.86250
O442        O  0.72602829  0.69302836  0.25937751    -0.83300
C443        C  0.72304236  0.67450821  0.23243785     0.97210
O444        O  0.70510729  0.66616109  0.20128354    -0.83330
O445        O  0.65970713  0.62946092  0.24534992    -0.85980
C446        C  0.64281069  0.62114155  0.27715297     1.01740
O447        O  0.63748444  0.63729669  0.29788241    -0.78740
O448        O  0.68362219  0.67943772  0.33060174    -0.78930
C449        C  0.69970616  0.70174624  0.34756005     1.01690
O450        O  0.69145013  0.73610536  0.23721958    -0.86250
O451        O  0.71522805  0.71457882  0.17766160    -0.83310
C452        C  0.69577072  0.70352760  0.14944560     0.97230
O453        O  0.67278511  0.68907340  0.16580420    -0.83340
O454        O  0.62763548  0.64951859  0.20655525    -0.85950
C455        C  0.61383046  0.65752045  0.22854555     1.01700
O456        O  0.62423736  0.67470508  0.25974767    -0.78760
O457        O  0.66596459  0.71828806  0.29801014    -0.78910
C458        C  0.67315186  0.73424641  0.26354138     1.01670
Cr459      Cr  0.70895915  0.71465631  0.24859736     1.93740
Cr460      Cr  0.66713416  0.66037060  0.20649091     1.93210
Cr461      Cr  0.65464618  0.67819701  0.29500374     1.39100
O462        O  0.67635876  0.68415615  0.24950752    -1.24000
O463        O  0.22762910  0.39384223  0.09682616    -0.86250
O464        O  0.21093278  0.39261407  0.18714064    -0.83300
C465        C  0.23458848  0.40558126  0.20192485     0.97210
O466        O  0.24770237  0.43088609  0.19561297    -0.83330
O467        O  0.26561936  0.48069807  0.15373324    -0.85980
C468        C  0.27890498  0.48383213  0.11729909     1.01740
O469        O  0.26726551  0.46999694  0.08224180    -0.78740
O470        O  0.23246438  0.42115622  0.03944338    -0.78930
C471        C  0.23552793  0.40238159  0.05668913     1.01690
O472        O  0.18152038  0.39273712  0.06563249    -0.86250
O473        O  0.16900969  0.39991521  0.15523138    -0.83310
C474        C  0.17107432  0.40925970  0.19485335     0.97230
O475        O  0.19425546  0.42595772  0.21086906    -0.83340
O476        O  0.21227430  0.47333427  0.16251468    -0.85950
C477        C  0.21586140  0.48746902  0.12720841     1.01700
O478        O  0.22521428  0.48280610  0.09129557    -0.78760
O479        O  0.18852238  0.43304020  0.05211148    -0.78910
C480        C  0.17371846  0.40765152  0.04852089     1.01670
Cr481      Cr  0.19887002  0.39768692  0.12612814     1.93740
Cr482      Cr  0.22925993  0.45131786  0.17665558     1.93210
Cr483      Cr  0.22756071  0.45034026  0.07041109     1.39100
O484        O  0.21892176  0.43350479  0.12425018    -1.24000
O485        O  0.62936736  0.79884340  0.16217685    -0.86250
O486        O  0.63607440  0.81495123  0.07217926    -0.83300
C487        C  0.62328363  0.79170358  0.05502700     0.97210
O488        O  0.59782802  0.77888556  0.05652823    -0.83330
O489        O  0.54592842  0.76056883  0.08959535    -0.85980
C490        C  0.54195414  0.74588257  0.12453085     1.01740
O491        O  0.55501944  0.75654081  0.16064696    -0.78740
O492        O  0.59879089  0.79136329  0.21423958    -0.78930
C493        C  0.61833417  0.78893717  0.19996178     1.01690
O494        O  0.62773316  0.84506150  0.18840766    -0.86250
O495        O  0.62780291  0.85758499  0.09622348    -0.83310
C496        C  0.62134779  0.85566719  0.05463894     0.97230
O497        O  0.60438834  0.83252617  0.03848333    -0.83340
O498        O  0.55412924  0.81370899  0.08049194    -0.85950
C499        C  0.53799215  0.80873739  0.11343099     1.01700
O500        O  0.54035584  0.79785492  0.14953893    -0.78760
O501        O  0.58552909  0.83374773  0.19659478    -0.78910
C502        C  0.61022229  0.85017451  0.20306074     1.01670
Cr503      Cr  0.62725431  0.82744358  0.12962893     1.93740
Cr504      Cr  0.57683514  0.79720971  0.07058570     1.93210
Cr505      Cr  0.57159017  0.79578688  0.17623254     1.39100
O506        O  0.59164695  0.80686385  0.12553653    -1.24000
O507        O  0.78809487  0.63450575  0.35039469    -0.86250
O508        O  0.80979245  0.63673866  0.43807629    -0.83300
C509        C  0.78661353  0.62436503  0.45453129     0.97210
O510        O  0.77300915  0.59908338  0.44878501    -0.83330
O511        O  0.75376451  0.54937735  0.40697305    -0.85980
C512        C  0.73988244  0.54534330  0.37120961     1.01740
O513        O  0.75087504  0.55822701  0.33477249    -0.78740
O514        O  0.78316039  0.60782524  0.29224999    -0.78930
C515        C  0.77950026  0.62586464  0.31058246     1.01690
O516        O  0.83419680  0.63815691  0.31223423    -0.86250
O517        O  0.84977994  0.63044531  0.39907776    -0.83310
C518        C  0.84934870  0.61995750  0.43747200     0.97230
O519        O  0.82688280  0.60343819  0.45623123    -0.83340
O520        O  0.80653294  0.55563313  0.41033459    -0.85950
C521        C  0.80462632  0.54383730  0.37301717     1.01700
O522        O  0.79557860  0.54905950  0.33753684    -0.78760
O523        O  0.82936761  0.59910061  0.29896986    -0.78910
C524        C  0.84329367  0.62453942  0.29466780     1.01670
Cr525      Cr  0.81882252  0.63205566  0.37491635     1.93740
Cr526      Cr  0.79063196  0.57833435  0.42659502     1.93210
Cr527      Cr  0.79045751  0.57984169  0.31996956     1.39100
O528        O  0.79959874  0.59618789  0.37376711    -1.24000
C529        C  0.64396089  0.78164025  0.26369903    -0.02750
C530        C  0.62765285  0.77249424  0.22419445     0.06930
C531        C  0.62637388  0.75108232  0.19920880    -0.02860
C532        C  0.64394118  0.74170637  0.20939787    -0.02870
C533        C  0.65827317  0.74843581  0.25089273     0.07060
C534        C  0.65824252  0.76867319  0.27828662    -0.03060
Br535      Br  0.68162097  0.78186780  0.33053357    -0.01610
Br536      Br  0.64884193  0.81325490  0.29489815    -0.01680
Br537      Br  0.65318755  0.72632381  0.16011713    -0.01640
Br538      Br  0.60207930  0.73618725  0.14775432    -0.01620
C539        C  0.72897607  0.63380809  0.23850592    -0.02750
C540        C  0.74022107  0.66225092  0.23971945     0.06930
C541        C  0.76661646  0.67856966  0.25699579    -0.02860
C542        C  0.77987035  0.66654941  0.27841249    -0.02870
C543        C  0.76666499  0.63818372  0.28370208     0.07060
C544        C  0.74176569  0.62180614  0.26173866    -0.03060
Br545      Br  0.72394921  0.58281073  0.26607990    -0.01610
Br546      Br  0.69606604  0.61065391  0.20599077    -0.01680
Br547      Br  0.81665873  0.68904041  0.29852584    -0.01640
Br548      Br  0.78516935  0.71756016  0.25034800    -0.01620
C549        C  0.64368290  0.75285021  0.97418071    -0.02750
C550        C  0.66497654  0.75281239  0.99884351     0.06930
C551        C  0.67511994  0.76962218  0.03825653    -0.02860
C552        C  0.66202279  0.78294702  0.05537703    -0.02870
C553        C  0.63861354  0.77989350  0.03387701     0.07060
C554        C  0.63052702  0.76612159  0.99192035    -0.03060
Br555      Br  0.60268099  0.76726276  0.45682510    -0.01610
Br556      Br  0.63272820  0.73617587  0.41487763    -0.01680
Br557      Br  0.67666916  0.80496845  0.10956803    -0.01640
Br558      Br  0.70719271  0.77558742  0.07089480    -0.01620
C559        C  0.77137640  0.68048952  0.48129540    -0.02750
C560        C  0.74914387  0.66685257  0.51126422     0.06930
C561        C  0.74481350  0.64262132  0.53237100    -0.02860
C562        C  0.75779131  0.62905586  0.51518980    -0.02870
C563        C  0.77599316  0.64016312  0.47824954     0.07060
C564        C  0.78459162  0.66722587  0.46450215    -0.03060
Br565      Br  0.81422514  0.68718469  0.42223699    -0.01610
Br566      Br  0.78543110  0.71824840  0.46532886    -0.01680
Br567      Br  0.75247208  0.59660309  0.54511722    -0.01640
Br568      Br  0.72345907  0.62902241  0.08732052    -0.01620
C569        C  0.53845112  0.61153291  0.24596504    -0.02750
C570        C  0.52866479  0.61383110  0.20333824     0.06930
C571        C  0.54647761  0.63349582  0.17189020    -0.02860
C572        C  0.57433515  0.64718127  0.17923391    -0.02870
C573        C  0.58444703  0.64448502  0.22111843     0.07060
C574        C  0.56618285  0.62787258  0.25566147    -0.03060
Br575      Br  0.57908369  0.62546711  0.31501176    -0.01610
Br576      Br  0.51452759  0.58448858  0.28913307    -0.01680
Br577      Br  0.59826888  0.66829067  0.13073699    -0.01640
Br578      Br  0.53275372  0.64228014  0.11887052    -0.01620
C579        C  0.57540174  0.60932334  0.05933440    -0.02750
C580        C  0.58676327  0.63325732  0.03208505     0.06930
C581        C  0.56892335  0.63804230  0.00505157    -0.02860
C582        C  0.54078074  0.62013687  0.00719343    -0.02870
C583        C  0.52963818  0.59854058  0.03851020     0.07060
C584        C  0.54723153  0.59206742  0.06213233    -0.03060
Br585      Br  0.53378634  0.55899208  0.09771803    -0.01610
Br586      Br  0.59752394  0.59904338  0.09438471    -0.01680
Br587      Br  0.51760562  0.62237233  0.46195608    -0.01640
Br588      Br  0.58168324  0.66820068  0.46296309    -0.01620
C589        C  0.32505858  0.50428162  0.15250291    -0.02750
C590        C  0.30870356  0.50406743  0.11661478     0.06930
C591        C  0.32084580  0.52426863  0.08237795    -0.02860
C592        C  0.34915166  0.54288610  0.08265447    -0.02870
C593        C  0.36537573  0.54320926  0.11927747     0.07060
C594        C  0.35217012  0.52521222  0.15626622    -0.03060
Br595      Br  0.36967677  0.52896251  0.21389909    -0.01610
Br596      Br  0.31167694  0.47375147  0.19336612    -0.01680
Br597      Br  0.36532441  0.56981208  0.03516851    -0.01640
Br598      Br  0.29860718  0.52736720  0.03640452    -0.01620
C599        C  0.50401497  0.70254638  0.16063160    -0.02750
C600        C  0.52117158  0.71599114  0.12288701     0.06930
C601        C  0.51735668  0.70084588  0.08255401    -0.02860
C602        C  0.49686983  0.67321608  0.07989119    -0.02870
C603        C  0.48146362  0.65912587  0.11885017     0.07060
C604        C  0.48460749  0.67447558  0.15874138    -0.03060
Br605      Br  0.46091077  0.65757711  0.21046275    -0.01610
Br606      Br  0.50618196  0.72240346  0.21523982    -0.01680
Br607      Br  0.49045361  0.65519247  0.02205556    -0.01640
Br608      Br  0.54200981  0.71677785  0.03172689    -0.01620
C609        C  0.41686803  0.44777959  0.03659367    -0.02750
C610        C  0.39022313  0.43614762  0.01897059     0.06930
C611        C  0.38105827  0.45392900  0.00392261    -0.02860
C612        C  0.39664439  0.48199834  0.01247119    -0.02870
C613        C  0.42198178  0.49271816  0.03322716     0.07060
C614        C  0.43288998  0.47592356  0.04121230    -0.03060
Br615      Br  0.47038019  0.49194176  0.05890921    -0.01610
Br616      Br  0.43288388  0.42646340  0.05527694    -0.01680
Br617      Br  0.38258956  0.50556097  0.99852135    -0.01640
Br618      Br  0.34718744  0.44118111  0.97245121    -0.01620
C619        C  0.28896728  0.38623042  0.02644995    -0.02750
C620        C  0.27630642  0.36432269  0.99618957     0.06930
C621        C  0.24881057  0.35399220  0.98638645    -0.02860
C622        C  0.23509816  0.36662094  0.00516977    -0.02870
C623        C  0.24945216  0.39080942  0.03074877     0.07060
C624        C  0.27685691  0.40109705  0.03951155    -0.03060
Br625      Br  0.29734355  0.43413327  0.07382379    -0.01610
Br626      Br  0.31757936  0.38957915  0.06317826    -0.01680
Br627      Br  0.19652047  0.34946235  0.99974588    -0.01640
Br628      Br  0.22942730  0.32050664  0.95332579    -0.01620
C629        C  0.38493617  0.44963718  0.18011774    -0.02750
C630        C  0.38667806  0.43852572  0.22142088     0.06930
C631        C  0.40197948  0.45617147  0.25717483    -0.02860
C632        C  0.41758859  0.48437863  0.24937230    -0.02870
C633        C  0.41502246  0.49528219  0.20795120     0.07060
C634        C  0.39644234  0.47767713  0.17528555    -0.03060
Br635      Br  0.38337455  0.49073716  0.12711460    -0.01610
Br636      Br  0.36754153  0.42650206  0.12982317    -0.01680
Br637      Br  0.44106809  0.50823627  0.29606603    -0.01640
Br638      Br  0.40169887  0.44201419  0.31657547    -0.01620
C639        C  0.28068225  0.39057359  0.27523292    -0.02750
C640        C  0.27345740  0.36413625  0.26035130     0.06930
C641        C  0.25006753  0.34981999  0.23319334    -0.02860
C642        C  0.23769330  0.36328204  0.21355094    -0.02870
C643        C  0.24636974  0.39057883  0.22532882     0.07060
C644        C  0.26627810  0.40304121  0.25943459    -0.03060
Br645      Br  0.27232519  0.43609039  0.28777983    -0.01610
Br646      Br  0.31053684  0.41077387  0.31627788    -0.01680
Br647      Br  0.20988108  0.34362151  0.16845892    -0.01640
Br648      Br  0.23357657  0.31105093  0.22429138    -0.01620
C649        C  0.47856824  0.42413631  0.25966796    -0.02750
C650        C  0.48889269  0.41694072  0.29705063     0.06930
C651        C  0.47107197  0.39464918  0.32445447    -0.02860
C652        C  0.44305861  0.38199224  0.31836114    -0.02870
C653        C  0.43246930  0.39004952  0.28269503     0.07060
C654        C  0.45050796  0.41017211  0.25159884    -0.03060
Br655      Br  0.43747534  0.41925890  0.19798666    -0.01610
Br656      Br  0.50269295  0.45405865  0.22122490    -0.01680
Br657      Br  0.41916121  0.35384285  0.35922510    -0.01640
Br658      Br  0.48512318  0.38125035  0.37045379    -0.01620
C659        C  0.47599126  0.39610406  0.47650109    -0.02750
C660        C  0.48790520  0.42287548  0.45929772     0.06930
C661        C  0.47062570  0.43209535  0.44273099    -0.02860
C662        C  0.44241189  0.41467834  0.44254344    -0.02870
C663        C  0.43069362  0.38745189  0.45793921     0.07060
C664        C  0.44803139  0.37815503  0.47246565    -0.03060
Br665      Br  0.43448377  0.34000098  0.98030312    -0.01610
Br666      Br  0.49724585  0.38347841  0.50756106    -0.01680
Br667      Br  0.42063563  0.42957225  0.42146482    -0.01640
Br668      Br  0.48432478  0.46873869  0.42007907    -0.01620
C669        C  0.63723613  0.58051649  0.31963666    -0.02750
C670        C  0.62775248  0.59170154  0.28701315     0.06930
C671        C  0.60540054  0.57426853  0.25972471    -0.02860
C672        C  0.59203937  0.54605426  0.26598970    -0.02870
C673        C  0.60093713  0.53475529  0.29941548     0.07060
C674        C  0.62401058  0.55214445  0.32574390    -0.03060
Br675      Br  0.63760642  0.53773328  0.37098600    -0.01610
Br676      Br  0.66858743  0.60427425  0.35538989    -0.01680
Br677      Br  0.56236572  0.52270345  0.22671340    -0.01640
Br678      Br  0.59287616  0.58852043  0.21275431    -0.01620
C679        C  0.58417168  0.55125015  0.45531392    -0.02750
C680        C  0.59303931  0.53386065  0.47131985     0.06930
C681        C  0.61742902  0.54500715  0.49443520    -0.02860
C682        C  0.63631801  0.57286206  0.49014704    -0.02870
C683        C  0.62910928  0.59062162  0.46801758     0.07060
C684        C  0.60205901  0.57926734  0.45215185    -0.03060
Br685      Br  0.58812050  0.60028472  0.42365677    -0.01610
Br686      Br  0.54686220  0.53585432  0.43719120    -0.01680
Br687      Br  0.67208606  0.58458415  0.51228607    -0.01640
Br688      Br  0.62206174  0.52292954  0.53866746    -0.01620
C689        C  0.69681625  0.50445664  0.34055836    -0.02750
C690        C  0.71007386  0.52513483  0.37341524     0.06930
C691        C  0.69516393  0.52481990  0.41180763    -0.02860
C692        C  0.66849826  0.50361903  0.41885079    -0.02870
C693        C  0.65366283  0.48534306  0.38327382     0.07060
C694        C  0.66869063  0.48523812  0.34457742    -0.03060
Br695      Br  0.65213778  0.45724216  0.29906146    -0.01610
Br696      Br  0.71747730  0.50153299  0.29126168    -0.01680
Br697      Br  0.65498518  0.49795522  0.48034811    -0.01640
Br698      Br  0.71001509  0.55497559  0.45331880    -0.01620
C699        C  0.92384192  0.65877709  0.45036097    -0.02750
C700        C  0.92863076  0.65982523  0.49807123     0.06930
C701        C  0.90603652  0.64477927  0.52706296    -0.02860
C702        C  0.87950089  0.63063662  0.50852887    -0.02870
C703        C  0.87578895  0.62897110  0.46048071     0.07060
C704        C  0.89878246  0.64015302  0.43261287    -0.03060
Br705      Br  0.89683404  0.62847198  0.37020755    -0.01610
Br706      Br  0.94812059  0.68533237  0.40705525    -0.01680
Br707      Br  0.84893109  0.61380781  0.04932543    -0.01640
Br708      Br  0.91084245  0.64616607  0.09214578    -0.01620
C709        C  0.91739144  0.67709934  0.26844424    -0.02750
C710        C  0.92573106  0.66111719  0.24432119     0.06930
C711        C  0.90524014  0.63533008  0.22847572    -0.02860
C712        C  0.87781309  0.62536934  0.23954654    -0.02870
C713        C  0.87061545  0.63880872  0.27191671     0.07060
C714        C  0.89056867  0.66565426  0.28440084    -0.03060
Br715      Br  0.88286163  0.68726698  0.32579876    -0.01610
Br716      Br  0.94211300  0.71538745  0.27832070    -0.01680
Br717      Br  0.84991675  0.59487325  0.20646746    -0.01640
Br718      Br  0.91346474  0.61194149  0.19379162    -0.01620
C719        C  0.92832565  0.55544707  0.40559110    -0.02750
C720        C  0.92492721  0.53548219  0.43758561     0.06930
C721        C  0.93141699  0.54260272  0.48363987    -0.02860
C722        C  0.94452020  0.57004124  0.49573535    -0.02870
C723        C  0.95376542  0.59002456  0.46094076     0.07060
C724        C  0.94362911  0.58283963  0.41683695    -0.03060
Br725      Br  0.94896129  0.61060576  0.37377499    -0.01610
Br726      Br  0.91058990  0.54537793  0.34776329    -0.01680
Br727      Br  0.95026688  0.57971371  0.05966146    -0.01640
Br728      Br  0.92474294  0.51562470  0.02958721    -0.01620
C729        C  0.95825923  0.57231365  0.24425486    -0.02750
C730        C  0.97457749  0.58770604  0.28153640     0.06930
C731        C  0.98189564  0.57440816  0.31419218    -0.02860
C732        C  0.97079261  0.54612284  0.31173136    -0.02870
C733        C  0.94934923  0.53047407  0.28104981     0.07060
C734        C  0.94424260  0.54384301  0.24577998    -0.03060
Br735      Br  0.91963497  0.52301723  0.19756735    -0.01610
Br736      Br  0.95835459  0.58940978  0.18750697    -0.01680
Br737      Br  0.98650777  0.52996782  0.34919143    -0.01640
Br738      Br  0.00656938  0.59419755  0.36319869    -0.01620
C739        C  0.83934412  0.50734130  0.32801377    -0.02750
C740        C  0.83187090  0.48631501  0.36041848     0.06930
C741        C  0.81281524  0.48258461  0.39464451    -0.02860
C742        C  0.80314064  0.50086360  0.39819089    -0.02870
C743        C  0.81378696  0.52389081  0.36965313     0.07060
C744        C  0.83250005  0.52727727  0.33557126    -0.03060
Br745      Br  0.85228608  0.56108876  0.30346576    -0.01610
Br746      Br  0.85813715  0.50945924  0.27181105    -0.01680
Br747      Br  0.77495077  0.49408839  0.44123670    -0.01640
Br748      Br  0.79809230  0.45123126  0.43410653    -0.01620
C749        C  0.81085432  0.35656614  0.39436785    -0.02750
C750        C  0.82483824  0.37175528  0.35554742     0.06930
C751        C  0.82712658  0.35803362  0.31735005    -0.02860
C752        C  0.82224018  0.33147569  0.32214190    -0.02870
C753        C  0.81196192  0.31708230  0.36412639     0.07060
C754        C  0.80465170  0.32950999  0.39915538    -0.03060
Br755      Br  0.78665592  0.31101461  0.45512235    -0.01610
Br756      Br  0.79830084  0.37235797  0.43961873    -0.01680
Br757      Br  0.83130628  0.31674783  0.26979989    -0.01640
Br758      Br  0.83566390  0.37459975  0.25710211    -0.01620
C759        C  0.67314757  0.92727397  0.01584111    -0.02750
C760        C  0.65683351  0.93495282  0.99105355     0.06930
C761        C  0.63104609  0.91393432  0.97666944    -0.02860
C762        C  0.62109063  0.88680506  0.99142499    -0.02870
C763        C  0.63481595  0.88104189  0.02569226     0.07060
C764        C  0.66194091  0.90095438  0.03445553    -0.03060
Br765      Br  0.68482879  0.89158340  0.06880065    -0.01610
Br766      Br  0.71150617  0.95208034  0.02245719    -0.01680
Br767      Br  0.59067673  0.85768290  0.96064401    -0.01640
Br768      Br  0.60813364  0.92160680  0.93908593    -0.01620
C769        C  0.73276733  0.12470487  0.52669686    -0.02750
C770        C  0.74146213  0.10614404  0.51547889     0.06930
C771        C  0.76637085  0.11601022  0.49282017    -0.02860
C772        C  0.77936300  0.14210776  0.47378275    -0.02870
C773        C  0.76741564  0.15838879  0.47659487     0.07060
C774        C  0.74566200  0.15080158  0.50677931    -0.03060
Br775      Br  0.73262747  0.17543036  0.51901157    -0.01610
Br776      Br  0.70270582  0.11484917  0.56726289    -0.01680
Br777      Br  0.81442665  0.15606172  0.44626435    -0.01640
Br778      Br  0.78338477  0.09429186  0.48900959    -0.01620
C779        C  0.62954539  0.88415574  0.26673280    -0.02750
C780        C  0.61977242  0.87729093  0.22183932     0.06930
C781        C  0.62375394  0.89768900  0.19096012    -0.02860
C782        C  0.64007410  0.92492767  0.20259181    -0.02870
C783        C  0.64958582  0.93207092  0.24749330     0.07060
C784        C  0.64379417  0.91161865  0.27999093    -0.03060
Br785      Br  0.65441370  0.92133502  0.34258734    -0.01610
Br786      Br  0.62090595  0.85596031  0.31071578    -0.01680
Br787      Br  0.64712023  0.95242430  0.15780227    -0.01640
Br788      Br  0.60360876  0.88812864  0.13521154    -0.01620
C789        C  0.72946567  0.12604302  0.22971444    -0.02750
C790        C  0.73281595  0.10498263  0.24798274     0.06930
C791        C  0.75499173  0.11175839  0.27688008    -0.02860
C792        C  0.77207669  0.13876567  0.29019125    -0.02870
C793        C  0.76616335  0.15921605  0.27731543     0.07060
C794        C  0.74581050  0.15293695  0.24465879    -0.03060
Br795      Br  0.74094773  0.18116310  0.21805277    -0.01610
Br796      Br  0.70224959  0.11840569  0.18438207    -0.01680
Br797      Br  0.80329267  0.14636672  0.32656593    -0.01640
Br798      Br  0.76144303  0.08423176  0.30233636    -0.01620
C799        C  0.63760029  0.08643072  0.30409839    -0.02750
C800        C  0.62442577  0.05901858  0.31734697     0.06930
C801        C  0.59651563  0.04558926  0.32495560    -0.02860
C802        C  0.58267213  0.06006301  0.32420789    -0.02870
C803        C  0.59561995  0.08736286  0.30751195     0.07060
C804        C  0.62284667  0.09928701  0.29357194    -0.03060
Br805      Br  0.64015205  0.13232830  0.25778486    -0.01610
Br806      Br  0.67612486  0.10617938  0.29965582    -0.01680
Br807      Br  0.54604424  0.04058145  0.34587249    -0.01640
Br808      Br  0.57648855  0.00640776  0.32905895    -0.01620
C809        C  0.64256647  0.09716106  0.47167994    -0.02750
C810        C  0.62953226  0.06884112  0.46566233     0.06930
C811        C  0.60108934  0.05412452  0.46097324    -0.02860
C812        C  0.58635776  0.06742226  0.46603959    -0.02870
C813        C  0.59961112  0.09577725  0.47021093     0.07060
C814        C  0.62757136  0.11029109  0.47718304    -0.03060
Br815      Br  0.64528012  0.14820551  0.49260027    -0.01610
Br816      Br  0.68052511  0.11851043  0.46045666    -0.01680
Br817      Br  0.54740589  0.04710055  0.46591560    -0.01640
Br818      Br  0.58132824  0.01614317  0.44509241    -0.01620
C819        C  0.67486142  0.22329017  0.36892079    -0.02750
C820        C  0.65713834  0.19505654  0.37181725     0.06930
C821        C  0.66796850  0.17778973  0.37386857    -0.02860
C822        C  0.69591838  0.18831171  0.37397052    -0.02870
C823        C  0.71357482  0.21635568  0.37421868     0.07060
C824        C  0.70314530  0.23398367  0.37031542    -0.03060
Br825      Br  0.72751906  0.27254623  0.36769042    -0.01610
Br826      Br  0.66034634  0.24707603  0.36474166    -0.01680
Br827      Br  0.71052512  0.16447386  0.37070561    -0.01640
Br828      Br  0.64458380  0.13945904  0.37665155    -0.01620
C829        C  0.87710542  0.26147106  0.23935072    -0.02750
C830        C  0.87440510  0.26208363  0.28737911     0.06930
C831        C  0.89756032  0.27121546  0.31453432    -0.02860
C832        C  0.92113899  0.27412359  0.29614064    -0.02870
C833        C  0.92517618  0.27666562  0.24847306     0.07060
C834        C  0.90275560  0.26967894  0.21998386    -0.03060
Br835      Br  0.90645118  0.26796259  0.15494222    -0.01610
Br836      Br  0.84663315  0.25051720  0.19951306    -0.01680
Br837      Br  0.94547167  0.27125219  0.33825509    -0.01640
Br838      Br  0.89890340  0.28351725  0.37613316    -0.01620
C839        C  0.10875172  0.40568573  0.24781172    -0.02750
C840        C  0.09270723  0.37780128  0.25870101     0.06930
C841        C  0.10479089  0.36159553  0.25542227    -0.02860
C842        C  0.13121422  0.37240736  0.23760376    -0.02870
C843        C  0.14597006  0.39957594  0.22250915     0.07060
C844        C  0.13493267  0.41635206  0.22919895    -0.03060
Br845      Br  0.15467471  0.45350698  0.20872911    -0.01610
Br846      Br  0.09510374  0.42966190  0.25528164    -0.01680
Br847      Br  0.14710841  0.34981657  0.23291917    -0.01640
Br848      Br  0.08486635  0.32429164  0.27514924    -0.01620
C849        C  0.92415942  0.40217590  0.25461514    -0.02750
C850        C  0.91680441  0.40452204  0.29946556     0.06930
C851        C  0.91599744  0.38650764  0.33331222    -0.02860
C852        C  0.92956507  0.37222010  0.32617511    -0.02870
C853        C  0.94040264  0.37289926  0.28307208     0.07060
C854        C  0.93464058  0.38508507  0.24617727    -0.03060
Br855      Br  0.94144164  0.37888417  0.18437332    -0.01610
Br856      Br  0.92176837  0.42326054  0.20528579    -0.01680
Br857      Br  0.93377827  0.35234830  0.37523095    -0.01640
Br858      Br  0.89452377  0.37975835  0.38750593    -0.01620
C859        C  0.90351627  0.29263989  0.52848696    -0.02750
C860        C  0.92246689  0.28542875  0.51321996     0.06930
C861        C  0.91272030  0.26109886  0.48871592    -0.02860
C862        C  0.88643750  0.24788061  0.47067861    -0.02870
C863        C  0.86870557  0.25808897  0.47916259     0.07060
C864        C  0.87698122  0.27947029  0.51082808    -0.03060
Br865      Br  0.85210340  0.29067796  0.53141016    -0.01610
Br866      Br  0.91250894  0.31877183  0.07623686    -0.01680
Br867      Br  0.87747043  0.21793510  0.42973097    -0.01640
Br868      Br  0.93494290  0.24471410  0.48189105    -0.01620
C869        C  0.09835421  0.36670403  0.04089637    -0.02750
C870        C  0.09243756  0.37129199  0.99598734     0.06930
C871        C  0.11447830  0.38817078  0.46680991    -0.02860
C872        C  0.14130376  0.40111811  0.98398401    -0.02870
C873        C  0.14639094  0.39450267  0.02790587     0.07060
C874        C  0.12457694  0.37450005  0.05332788    -0.03060
Br875      Br  0.12875976  0.35476936  0.10323207    -0.01610
Br876      Br  0.07279141  0.35458568  0.09055197    -0.01680
Br877      Br  0.17126100  0.42529253  0.44577680    -0.01640
Br878      Br  0.10874909  0.39326722  0.40358623    -0.01620
C879        C  0.96991219  0.41883488  0.42873338    -0.02750
C880        C  0.96380991  0.40064138  0.46537262     0.06930
C881        C  0.94519795  0.39941558  0.49894614    -0.02860
C882        C  0.92972315  0.41189618  0.49119511    -0.02870
C883        C  0.93705271  0.43096423  0.45588689     0.07060
C884        C  0.95959438  0.43644723  0.42819070    -0.03060
Br885      Br  0.97917115  0.46915916  0.39249220    -0.01610
Br886      Br  0.99030092  0.41890165  0.37652349    -0.01680
Br887      Br  0.90032933  0.40491244  0.03170091    -0.01640
Br888      Br  0.94419307  0.38601042  0.05942540    -0.01620
C889        C  0.10099792  0.63288245  0.02227854    -0.02750
C890        C  0.08748571  0.60490784  0.02988225     0.06930
C891        C  0.05925654  0.58982758  0.02532625    -0.02860
C892        C  0.04426131  0.60301452  0.02137453    -0.02870
C893        C  0.05736891  0.63160418  0.01954791     0.07060
C894        C  0.08608235  0.64593654  0.01411397    -0.03060
Br895      Br  0.10590376  0.68225926  0.99049991    -0.01610
Br896      Br  0.13991905  0.65326465  0.02444497    -0.01680
Br897      Br  0.00616158  0.58117828  0.01274416    -0.01640
Br898      Br  0.04136346  0.55068568  0.02453260    -0.01620
C899        C  0.04964086  0.61518947  0.18164476    -0.02750
C900        C  0.05996533  0.63570522  0.21506378     0.06930
C901        C  0.07977266  0.63720352  0.24588929    -0.02860
C902        C  0.08939511  0.61896589  0.24203963    -0.02870
C903        C  0.07866763  0.59840042  0.20873913     0.07060
C904        C  0.05696460  0.59527697  0.18144495    -0.03060
Br905      Br  0.03519958  0.56318958  0.14537809    -0.01610
Br906      Br  0.02661514  0.61485100  0.13326076    -0.01680
Br907      Br  0.11647008  0.62142516  0.28414407    -0.01640
Br908      Br  0.09404262  0.66343899  0.29448553    -0.01620
C909        C  0.04584632  0.47719611  0.17453265    -0.02750
C910        C  0.06879336  0.49309336  0.20246751     0.06930
C911        C  0.07098748  0.48237119  0.24416220    -0.02860
C912        C  0.05255139  0.45507697  0.25421565    -0.02870
C913        C  0.03486335  0.43760873  0.21985576     0.07060
C914        C  0.03051238  0.44913731  0.18085447    -0.03060
Br915      Br  0.00558150  0.42728584  0.13381160    -0.01610
Br916      Br  0.03428920  0.49347931  0.12832249    -0.01680
Br917      Br  0.05123586  0.44236104  0.31571666    -0.01640
Br918      Br  0.09936619  0.50407604  0.28670395    -0.01620
C919        C  0.09669048  0.48230671  0.07195886    -0.02750
C920        C  0.09664923  0.50063187  0.03933552     0.06930
C921        C  0.08114587  0.49063648  0.99985909    -0.02860
C922        C  0.06465407  0.46267493  0.99421897    -0.02870
C923        C  0.06112158  0.44463834  0.03010653     0.07060
C924        C  0.07777706  0.45442432  0.06859404    -0.03060
Br925      Br  0.07533928  0.42944831  0.11536560    -0.01610
Br926      Br  0.12333074  0.49447229  0.11943906    -0.01680
Br927      Br  0.04890702  0.44956621  0.43577448    -0.01640
Br928      Br  0.08358902  0.51547937  0.45269322    -0.01620
C929        C  0.20902812  0.52249068  0.16991563    -0.02750
C930        C  0.20888666  0.50974012  0.12819600     0.06930
C931        C  0.20167309  0.51839565  0.08786118    -0.02860
C932        C  0.19369913  0.53814539  0.08972181    -0.02870
C933        C  0.19018566  0.54783641  0.13223597     0.07060
C934        C  0.19889087  0.54049342  0.17208611    -0.03060
Br935      Br  0.19828755  0.55619328  0.23012363    -0.01610
Br936      Br  0.22453548  0.51698900  0.22460099    -0.01680
Br937      Br  0.18724996  0.55110844  0.03292312    -0.01640
Br938      Br  0.20060742  0.50229138  0.02929290    -0.01620
C939        C  0.37093937  0.28437992  0.29305632    -0.02750
C940        C  0.36029662  0.28157280  0.24860334     0.06930
C941        C  0.36447420  0.26541747  0.21696197    -0.02860
C942        C  0.37916933  0.25261232  0.23001567    -0.02870
C943        C  0.39175426  0.25793344  0.27313542     0.07060
C944        C  0.38882433  0.27525377  0.30326433    -0.03060
Br945      Br  0.40945670  0.28673025  0.35901246    -0.01610
Br946      Br  0.35827270  0.29646559  0.34314404    -0.01680
Br947      Br  0.38239018  0.22807566  0.18921408    -0.01640
Br948      Br  0.34701253  0.25789537  0.15849640    -0.01620
C949        C  0.35145308  0.23724439  0.45886863    -0.02750
C950        C  0.37904881  0.24654825  0.46740324     0.06930
C951        C  0.39198630  0.26559056  0.50295891    -0.02860
C952        C  0.37889477  0.27810566  0.52414083    -0.02870
C953        C  0.35317395  0.27247505  0.50879014     0.07060
C954        C  0.33856245  0.24985802  0.47977924    -0.03060
Br955      Br  0.30019313  0.23461884  0.47012887    -0.01610
Br956      Br  0.33035393  0.20639555  0.41966885    -0.01680
Br957      Br  0.39644518  0.30228084  0.07484988    -0.01640
Br958      Br  0.42815609  0.27596610  0.02206876    -0.01620
C959        C  0.52475933  0.35535674  0.33522900    -0.02750
C960        C  0.53766273  0.36928192  0.37633880     0.06930
C961        C  0.53188363  0.35333698  0.41669201    -0.02860
C962        C  0.51230283  0.32518429  0.41648501    -0.02870
C963        C  0.49755898  0.31237520  0.37648857     0.07060
C964        C  0.50396827  0.32788992  0.33606368    -0.03060
Br965      Br  0.48256108  0.31237119  0.28172336    -0.01610
Br966      Br  0.53553608  0.37254237  0.27570982    -0.01680
Br967      Br  0.50654415  0.30393203  0.47111892    -0.01640
Br968      Br  0.55123340  0.36898839  0.47261304    -0.01620
C969        C  0.51747012  0.21523670  0.41169870    -0.02750
C970        C  0.50614835  0.21764304  0.37006896     0.06930
C971        C  0.51902328  0.21740260  0.32885218    -0.02860
C972        C  0.53950626  0.21056060  0.32892640    -0.02870
C973        C  0.54692645  0.20285868  0.36983122     0.07060
C974        C  0.53726488  0.20739561  0.41162295    -0.03060
Br975      Br  0.54949392  0.20166083  0.46987996    -0.01610
Br976      Br  0.50668981  0.22276559  0.46989803    -0.01680
Br977      Br  0.55876853  0.21368710  0.27295029    -0.01640
Br978      Br  0.51058538  0.22868619  0.27202241    -0.01620
C979        C  0.13115161  0.78614243  0.20869353    -0.02750
C980        C  0.14994308  0.77835249  0.22220712     0.06930
C981        C  0.14432331  0.76205970  0.26156226    -0.02860
C982        C  0.11824035  0.74937144  0.28107559    -0.02870
C983        C  0.09753878  0.75243177  0.26043672     0.07060
C984        C  0.10513061  0.77332394  0.22776470    -0.03060
Br985      Br  0.08071610  0.78575389  0.20992795    -0.01610
Br986      Br  0.14107673  0.81535107  0.16522281    -0.01680
Br987      Br  0.11207161  0.72897215  0.33691929    -0.01640
Br988      Br  0.17177141  0.75656434  0.28898847    -0.01620
C989        C  0.13036284  0.74332406  0.05132723    -0.02750
C990        C  0.15021894  0.76523441  0.02627997     0.06930
C991        C  0.14301084  0.77389927  0.98633553    -0.02860
C992        C  0.11580438  0.76045621  0.97174968    -0.02870
C993        C  0.09579955  0.73889930  0.99789460     0.07060
C994        C  0.10329990  0.73112257  0.03857561    -0.03060
Br995      Br  0.07708780  0.70340199  0.07803614    -0.01610
Br996      Br  0.13997084  0.73035568  0.10465496    -0.01680
Br997      Br  0.10550080  0.77329247  0.41915212    -0.01640
Br998      Br  0.17044145  0.80406288  0.95199419    -0.01620
C999        C  0.16946757  0.67044972  0.15560909    -0.02750
C1000       C  0.18520069  0.65938917  0.14119243     0.06930
C1001       C  0.21170115  0.67708618  0.12582726    -0.02860
C1002       C  0.22180125  0.70540756  0.12404440    -0.02870
C1003       C  0.20643530  0.71639497  0.14234613     0.07060
C1004       C  0.18103169  0.69838066  0.16191425    -0.03060
Br1005     Br  0.16098103  0.71059699  0.19749675    -0.01610
Br1006     Br  0.13089911  0.64891297  0.15502707    -0.01680
Br1007     Br  0.25673685  0.72867150  0.09702038    -0.01640
Br1008     Br  0.23311801  0.66215338  0.10396877    -0.01620
C1009       C  0.34813172  0.10749303  0.24968834    -0.02750
C1010       C  0.36392239  0.09806254  0.22822142     0.06930
C1011       C  0.39064955  0.11764193  0.21512329    -0.02860
C1012       C  0.40313524  0.14424924  0.23354283    -0.02870
C1013       C  0.38858539  0.15157123  0.26351875     0.07060
C1014       C  0.36038196  0.13396207  0.26734767    -0.03060
Br1015     Br  0.33810098  0.14618678  0.29621916    -0.01610
Br1016     Br  0.30933257  0.08457894  0.25371803    -0.01680
Br1017     Br  0.44062071  0.16958195  0.22064231    -0.01640
Br1018     Br  0.41091616  0.10827307  0.17400575    -0.01620
C1019       C  0.25400773  0.92013339  0.23798682    -0.02750
C1020       C  0.27721939  0.92873502  0.26514503     0.06930
C1021       C  0.28519292  0.90962067  0.27576940    -0.02860
C1022       C  0.27201219  0.88360068  0.25552258    -0.02870
C1023       C  0.25168282  0.87683147  0.22221102     0.07060
C1024       C  0.24253892  0.89541462  0.21433187    -0.03060
Br1025     Br  0.21607367  0.88946538  0.16812480    -0.01610
Br1026     Br  0.23705921  0.94200782  0.23378161    -0.01680
Br1027     Br  0.28191609  0.85742384  0.27496663    -0.01640
Br1028     Br  0.31434164  0.91844094  0.31728895    -0.01620
C1029       C  0.47775189  0.06573872  0.29812814    -0.02750
C1030       C  0.49156554  0.09398569  0.29225971     0.06930
C1031       C  0.47660667  0.10707217  0.28687817    -0.02860
C1032       C  0.44819653  0.09175885  0.28845144    -0.02870
C1033       C  0.43487786  0.06358492  0.29659352     0.07060
C1034       C  0.45025689  0.05169947  0.30710575    -0.03060
Br1035     Br  0.43636422  0.02086956  0.34687939    -0.01610
Br1036     Br  0.49654455  0.04610547  0.29710746    -0.01680
Br1037     Br  0.42785091  0.10980992  0.29101238    -0.01640
Br1038     Br  0.49500839  0.14567641  0.27843939    -0.01620
C1039       C  0.40720110  0.14174499  0.49188496    -0.02750
C1040       C  0.39108838  0.15212566  0.47483304     0.06930
C1041       C  0.36285706  0.13714392  0.48444740    -0.02860
C1042       C  0.35069324  0.11030840  0.50095001    -0.02870
C1043       C  0.36665984  0.09907518  0.51294958     0.07060
C1044       C  0.39503911  0.11625201  0.51381250    -0.03060
Br1045     Br  0.41788215  0.10607602  0.54620414    -0.01610
Br1046     Br  0.44587067  0.16078700  0.48410837    -0.01680
Br1047     Br  0.31209577  0.08937014  0.01037609    -0.01640
Br1048     Br  0.34028331  0.15311076  0.47862901    -0.01620
C1049       C  0.25273873  0.91669625  0.00841326    -0.02750
C1050       C  0.27815159  0.92661023  0.98710441     0.06930
C1051       C  0.28550665  0.90731403  0.97339238    -0.02860
C1052       C  0.27036168  0.88005920  0.98804638    -0.02870
C1053       C  0.24865827  0.87225242  0.01824639     0.07060
C1054       C  0.23798857  0.88956911  0.02334794    -0.03060
Br1055     Br  0.20188085  0.87512295  0.04716934    -0.01610
Br1056     Br  0.23721424  0.93953874  0.01581365    -0.01680
Br1057     Br  0.27851847  0.85339751  0.96486325    -0.01640
Br1058     Br  0.31653086  0.91715515  0.43620424    -0.01620
C1059       C  0.45587728  0.05638479  0.47771585    -0.02750
C1060       C  0.43785791  0.06341106  0.45829330     0.06930
C1061       C  0.44833518  0.08957945  0.43973601    -0.02860
C1062       C  0.47653140  0.10782313  0.43898176    -0.02870
C1063       C  0.49417740  0.10104907  0.46149463     0.07060
C1064       C  0.48301560  0.07591121  0.48398594    -0.03060
Br1065     Br  0.50483244  0.06817236  0.52459486    -0.01610
Br1066     Br  0.44527344  0.01968154  0.49037032    -0.01680
Br1067     Br  0.49031907  0.14084417  0.40481756    -0.01640
Br1068     Br  0.42392066  0.09921786  0.41206762    -0.01620
C1069       C  0.47349707  0.81206633  0.13661857    -0.02750
C1070       C  0.47694949  0.83284413  0.10622607     0.06930
C1071       C  0.49760627  0.84151095  0.07268588    -0.02860
C1072       C  0.51840586  0.83556777  0.07793982    -0.02870
C1073       C  0.51600286  0.81576124  0.10965800     0.07060
C1074       C  0.49214095  0.80267266  0.13676777    -0.03060
Br1075     Br  0.48364472  0.77099340  0.17275040    -0.01610
Br1076     Br  0.44175462  0.79439133  0.17490601    -0.01680
Br1077     Br  0.55157487  0.85836767  0.04553521    -0.01640
Br1078     Br  0.49884567  0.86185042  0.01855947    -0.01620
C1079       C  0.57504205  0.94789790  0.05983256    -0.02750
C1080       C  0.58552547  0.97514012  0.04784437     0.06930
C1081       C  0.56885514  0.98655867  0.04934250    -0.02860
C1082       C  0.54106388  0.96933788  0.04893181    -0.02870
C1083       C  0.53041078  0.94203756  0.06098068     0.07060
C1084       C  0.54789300  0.93241533  0.07196176    -0.03060
Br1085     Br  0.53659671  0.90211185  0.11241800    -0.01610
Br1086     Br  0.59839885  0.93317088  0.06538483    -0.01680
Br1087     Br  0.51799877  0.98388558  0.53581217    -0.01640
Br1088     Br  0.58286861  0.02455353  0.56101085    -0.01620
C1089       C  0.56359774  0.94119109  0.21754349    -0.02750
C1090       C  0.57688214  0.96906488  0.20637180     0.06930
C1091       C  0.56113132  0.98123280  0.19982469    -0.02860
C1092       C  0.53266396  0.96584178  0.20371917    -0.02870
C1093       C  0.51918939  0.93736066  0.21304800     0.07060
C1094       C  0.53525410  0.92555109  0.22135940    -0.03060
Br1095     Br  0.51912176  0.88827203  0.24175438    -0.01610
Br1096     Br  0.58418938  0.92406941  0.22991000    -0.01680
Br1097     Br  0.51339884  0.98540185  0.19880148    -0.01640
Br1098     Br  0.57911082  0.01993319  0.18965693    -0.01620
C1099       C  0.38290582  0.92428643  0.17450246    -0.02750
C1100       C  0.39990400  0.92082080  0.20527696     0.06930
C1101       C  0.40307172  0.93120869  0.24955731    -0.02860
C1102       C  0.39146571  0.94700478  0.26104040    -0.02870
C1103       C  0.37880200  0.95455568  0.22744057     0.07060
C1104       C  0.37240513  0.94109509  0.18543976    -0.03060
Br1105     Br  0.34756333  0.94399352  0.14474714    -0.01610
Br1106     Br  0.37486219  0.90676442  0.11643977    -0.01680
Br1107     Br  0.39193851  0.95688299  0.32325114    -0.01640
Br1108     Br  0.42550573  0.92633076  0.29297589    -0.01620
C1109       C  0.41180832  0.94125087  0.00582838    -0.02750
C1110       C  0.42780349  0.94711182  0.04482754     0.06930
C1111       C  0.42983200  0.96704971  0.07576896    -0.02860
C1112       C  0.41149294  0.97634746  0.07304314    -0.02870
C1113       C  0.39390597  0.96908804  0.03525320     0.07060
C1114       C  0.39614406  0.95345088  0.99985658    -0.03060
Br1115     Br  0.38401435  0.95420163  0.43919142    -0.01610
Br1116     Br  0.41498346  0.92014895  0.45726226    -0.01680
Br1117     Br  0.41272364  0.00090542  0.11965665    -0.01640
Br1118     Br  0.45898419  0.98415558  0.11938550    -0.01620
C1119       C  0.35108218  0.84158092  0.07870082    -0.02750
C1120       C  0.36266804  0.83090721  0.10850306     0.06930
C1121       C  0.34591823  0.81099180  0.14055661    -0.02860
C1122       C  0.31854058  0.80363384  0.14524847    -0.02870
C1123       C  0.30818131  0.81738976  0.11943658     0.07060
C1124       C  0.32523144  0.83721508  0.08753131    -0.03060
Br1125     Br  0.31550082  0.86211354  0.06116252    -0.01610
Br1126     Br  0.36960711  0.86195402  0.02487798    -0.01680
Br1127     Br  0.29610605  0.77505086  0.18758590    -0.01640
Br1128     Br  0.36022074  0.79242582  0.17546703    -0.01620
O1129       O  0.48324525  0.91286714  0.55168680    -0.86250
O1130       O  0.46029043  0.86051036  0.57801572    -0.83300
C1131       C  0.46161933  0.84766486  0.61171904     0.97210
O1132       O  0.45204468  0.84899516  0.65013748    -0.83330
O1133       O  0.47779849  0.89477990  0.69950810    -0.85980
C1134       C  0.48902609  0.91967595  0.70771975     1.01740
O1135       O  0.47476095  0.92982529  0.70024458    -0.78740
O1136       O  0.50006522  0.93384205  0.61758418    -0.78930
C1137       C  0.50312361  0.92787782  0.57767633     1.01690
O1138       O  0.42774212  0.90566511  0.55297881    -0.86250
O1139       O  0.40738445  0.85360742  0.57835252    -0.83310
C1140       C  0.39250036  0.84539615  0.61341974     0.97230
O1141       O  0.40227680  0.85151083  0.65309177    -0.83340
O1142       O  0.42465379  0.89632726  0.70516835    -0.85950
C1143       C  0.41931223  0.91349879  0.68654515     1.01700
O1144       O  0.43213590  0.92693603  0.65207096    -0.78760
O1145       O  0.46304108  0.94193063  0.57339538    -0.78910
C1146       C  0.44045726  0.93098162  0.55557038     1.01670
Cr1147     Cr  0.44501300  0.88398669  0.56894443     1.93740
Cr1148     Cr  0.43988142  0.87424323  0.67439731     1.93210
Cr1149     Cr  0.46643954  0.93089712  0.63538290     1.39100
O1150       O  0.45002398  0.89556110  0.62587959    -1.24000
O1151       O  0.29621977  0.97286009  0.51058438    -0.86250
O1152       O  0.31591540  0.01618688  0.57307269    -0.83300
C1153       C  0.32887215  0.00994356  0.60150090     0.97210
O1154       O  0.34828896  0.00774791  0.58725132    -0.83330
O1155       O  0.38837506  0.00739186  0.53907050    -0.85980
C1156       C  0.37847857  0.98298714  0.52711864     1.01740
O1157       O  0.35760547  0.97210425  0.50302527    -0.78740
O1158       O  0.31512075  0.96601683  0.95147392    -0.78930
C1159       C  0.29725914  0.95663462  0.48250499     1.01690
O1160       O  0.31038126  0.00944506  0.93058463    -0.86250
O1161       O  0.33579668  0.05296679  0.99261469    -0.83310
C1162       C  0.35405690  0.06921593  0.01943776     0.97230
O1163       O  0.36238414  0.05986112  0.55032140    -0.83340
O1164       O  0.39783063  0.05544919  0.99361288    -0.85950
C1165       C  0.40850244  0.04617399  0.96751077     1.01700
O1166       O  0.39490312  0.02162386  0.95476337    -0.78760
O1167       O  0.35109699  0.01863078  0.91280833    -0.78910
C1168       C  0.32898526  0.01611389  0.90063431     1.01670
Cr1169     Cr  0.31636110  0.01288594  0.00164603     1.93740
Cr1170     Cr  0.37239157  0.03141657  0.54027507     1.93210
Cr1171     Cr  0.35399276  0.99568519  0.95799026     1.39100
O1172       O  0.34743750  0.01324606  0.99998474    -1.24000
O1173       O  0.30814864  0.01006137  0.82259027    -0.86250
O1174       O  0.33634191  0.05325679  0.75698703    -0.83300
C1175       C  0.35362611  0.06801846  0.72726399     0.97210
O1176       O  0.36224286  0.05720575  0.69861316    -0.83330
O1177       O  0.39843049  0.05180095  0.74771315    -0.85980
C1178       C  0.40651103  0.04578037  0.78307998     1.01740
O1179       O  0.39161062  0.02352220  0.80331411    -0.78740
O1180       O  0.35019175  0.02773141  0.83184556    -0.78930
C1181       C  0.32806605  0.01978457  0.85006593     1.01690
O1182       O  0.29488779  0.97444036  0.74336484    -0.86250
O1183       O  0.31526382  0.01704246  0.67903501    -0.83310
C1184       C  0.32584796  0.00729526  0.65233548     0.97230
O1185       O  0.34030278  0.99936408  0.67026127    -0.83340
O1186       O  0.38038845  0.99702312  0.71444005    -0.85950
C1187       C  0.37088928  0.97504764  0.73737238     1.01700
O1188       O  0.35514425  0.97049280  0.77007051    -0.78760
O1189       O  0.31184387  0.96840580  0.80619580    -0.78910
C1190       C  0.29536461  0.95858060  0.77280612     1.01670
Cr1191     Cr  0.31520075  0.01365331  0.75076344     1.93740
Cr1192     Cr  0.36881057  0.02541640  0.70953237     1.93210
Cr1193     Cr  0.35157170  0.99847941  0.80124276     1.39100
O1194       O  0.34538860  0.01207723  0.75320776    -1.24000
O1195       O  0.18454402  0.80453846  0.56128844    -0.86250
O1196       O  0.17267996  0.78999300  0.65165542    -0.83300
C1197       C  0.17443073  0.78691026  0.69371040     0.97210
O1198       O  0.19712157  0.79273067  0.71068530    -0.83330
O1199       O  0.21208483  0.75808356  0.67076146    -0.85980
C1200       C  0.21539490  0.74583964  0.63780651     1.01740
O1201       O  0.22558699  0.75813411  0.60042545    -0.78740
O1202       O  0.19138360  0.77059976  0.55477305    -0.78930
C1203       C  0.17713180  0.78111216  0.54698328     1.01690
O1204       O  0.23271221  0.85098068  0.58922398    -0.86250
O1205       O  0.21650534  0.84091636  0.67916208    -0.83310
C1206       C  0.23963305  0.85061833  0.69630596     0.97230
O1207       O  0.25176634  0.83758147  0.69148228    -0.83340
O1208       O  0.26606203  0.80128311  0.65863352    -0.85950
C1209       C  0.27937695  0.81006070  0.62195753     1.01700
O1210       O  0.26836134  0.81236877  0.58641945    -0.78760
O1211       O  0.23559489  0.82557845  0.53595015    -0.78910
C1212       C  0.23884585  0.84832233  0.54909133     1.01670
Cr1213     Cr  0.20305371  0.82027505  0.62063981     1.93740
Cr1214     Cr  0.23103942  0.79785058  0.67875836     1.93210
Cr1215     Cr  0.22968095  0.79253192  0.57311882     1.39100
O1216       O  0.22149555  0.80337496  0.62404705    -1.24000
O1217       O  0.38674789  0.22998060  0.89774748    -0.86250
O1218       O  0.38796966  0.21858465  0.80676285    -0.83300
C1219       C  0.40364023  0.24215234  0.79153864     0.97210
O1220       O  0.42878596  0.25297411  0.79678695    -0.83330
O1221       O  0.47643032  0.26812381  0.84249684    -0.85980
C1222       C  0.47674919  0.28257354  0.87565395     1.01740
O1223       O  0.45999862  0.27162301  0.90798428    -0.78740
O1224       O  0.41301058  0.23418025  0.95462097    -0.78930
C1225       C  0.39380877  0.23650525  0.93858303     1.01690
O1226       O  0.38679071  0.18193425  0.92314629    -0.86250
O1227       O  0.39335636  0.17316277  0.83423929    -0.83310
C1228       C  0.40196544  0.17586740  0.79402076     0.97230
O1229       O  0.42047428  0.19903976  0.78036550    -0.83340
O1230       O  0.46618104  0.21355428  0.83516150    -0.85950
C1231       C  0.48177511  0.22117395  0.86928214     1.01700
O1232       O  0.47704518  0.23240644  0.90243554    -0.78760
O1233       O  0.42786333  0.19376834  0.94255921    -0.78910
C1234       C  0.40274938  0.17734950  0.94569833     1.01670
Cr1235     Cr  0.39161269  0.20254120  0.86560396     1.93740
Cr1236     Cr  0.44644683  0.23251553  0.81747767     1.93210
Cr1237     Cr  0.44322441  0.23220634  0.92257054     1.39100
O1238       O  0.42715083  0.22245066  0.86863570    -1.24000
O1239       O  0.10698191  0.53967026  0.70706536    -0.86250
O1240       O  0.15786109  0.55680816  0.66802852    -0.83300
C1241       C  0.17452036  0.56251195  0.63566919     0.97210
O1242       O  0.17679770  0.57954458  0.60552697    -0.83330
O1243       O  0.13260165  0.54483127  0.55756142    -0.85980
C1244       C  0.10799842  0.52939985  0.55034241     1.01740
O1245       O  0.09227957  0.53832189  0.55674968    -0.78740
O1246       O  0.09091408  0.52104348  0.64164708    -0.78930
C1247       C  0.09057219  0.51903230  0.68376741     1.01690
O1248       O  0.11838780  0.59522555  0.69871418    -0.86250
O1249       O  0.16968884  0.61375719  0.66723746    -0.83310
C1250       C  0.17196841  0.62967175  0.63456714     0.97230
O1251       O  0.16171320  0.62057036  0.59613348    -0.83340
O1252       O  0.11956776  0.58924292  0.54017072    -0.85950
C1253       C  0.10040667  0.59236151  0.55554799     1.01700
O1254       O  0.09003595  0.58297193  0.59365091    -0.78760
O1255       O  0.08030962  0.56087398  0.67801514    -0.78910
C1256       C  0.09304575  0.58384266  0.69607477     1.01670
Cr1257     Cr  0.13790693  0.57609206  0.68203137     1.93740
Cr1258     Cr  0.14635293  0.58280536  0.57744378     1.93210
Cr1259     Cr  0.09040680  0.55192637  0.61800474     1.39100
O1260       O  0.12523189  0.57110141  0.62605685    -1.24000
O1261       O  0.96771825  0.30306124  0.98685243    -0.86250
O1262       O  0.01202140  0.31959777  0.92536504    -0.83300
C1263       C  0.00647386  0.33234659  0.89558778     0.97210
O1264       O  0.00329864  0.35148268  0.90858906    -0.83330
O1265       O  0.00150690  0.39308887  0.95347086    -0.85980
C1266       C  0.97840996  0.38519385  0.97142162     1.01740
O1267       O  0.96869972  0.36536331  0.99818514    -0.78740
O1268       O  0.96262508  0.32256775  0.54714848    -0.78930
C1269       C  0.95238445  0.30446492  0.01642753     1.01690
O1270       O  0.00243664  0.31590467  0.56708002    -0.86250
O1271       O  0.04600423  0.33896546  0.50567665    -0.83310
C1272       C  0.06341463  0.35849544  0.48213018     0.97230
O1273       O  0.05571918  0.36727514  0.94890903    -0.83340
O1274       O  0.05179338  0.40436925  0.49577883    -0.85950
C1275       C  0.04361312  0.41538719  0.52286506     1.01700
O1276       O  0.01987480  0.40216922  0.53903224    -0.78760
O1277       O  0.01823144  0.35852086  0.57970293    -0.78910
C1278       C  0.01110825  0.33553574  0.59529583     1.01670
Cr1279     Cr  0.00709180  0.32122288  0.49595951     1.93740
Cr1280     Cr  0.02668548  0.37724948  0.95350372     1.93210
Cr1281     Cr  0.99339874  0.36139910  0.53898017     1.39100
O1282       O  0.00877122  0.35323182  0.49553256    -1.24000
O1283       O  0.00598433  0.31561834  0.67348509    -0.86250
O1284       O  0.04852207  0.34620468  0.73443443    -0.83300
C1285       C  0.06248762  0.36426696  0.76315498     0.97210
O1286       O  0.05061517  0.36983346  0.79478185    -0.83330
O1287       O  0.03530466  0.39996699  0.74905587    -0.85980
C1288       C  0.02284377  0.40796840  0.72494332     1.01740
O1289       O  0.00007752  0.39074471  0.70833073    -0.78740
O1290       O  0.00854577  0.35450861  0.66165267    -0.78930
C1291       C  0.00898662  0.33443002  0.64596007     1.01690
O1292       O  0.97202646  0.29344424  0.75493052    -0.86250
O1293       O  0.01539181  0.32033270  0.81693816    -0.83310
C1294       C  0.00355223  0.32820627  0.84504411     0.97230
O1295       O  0.99217955  0.33960949  0.82829940    -0.83340
O1296       O  0.98347638  0.37711181  0.79186696    -0.85950
C1297       C  0.95965068  0.36343582  0.77642274     1.01700
O1298       O  0.95379067  0.34446056  0.74934527    -0.78760
O1299       O  0.95935763  0.30888017  0.69793588    -0.78910
C1300       C  0.95335834  0.29258239  0.73131742     1.01670
Cr1301     Cr  0.01000170  0.32015180  0.74481995     1.93740
Cr1302     Cr  0.01476740  0.36999164  0.78969687     1.93210
Cr1303     Cr  0.98171968  0.34935358  0.70579157     1.39100
O1304       O  0.00251483  0.34681310  0.74604386    -1.24000
O1305       O  0.54011225  0.12344304  0.79371338    -0.86250
O1306       O  0.55866451  0.17263451  0.83364728    -0.83300
C1307       C  0.56146580  0.18706717  0.86813550     0.97210
O1308       O  0.57514357  0.18683818  0.90186008    -0.83330
O1309       O  0.53846329  0.14018162  0.94586558    -0.85980
C1310       C  0.52352284  0.11500348  0.95099564     1.01740
O1311       O  0.53352477  0.10048458  0.94241022    -0.78740
O1312       O  0.51762773  0.10224972  0.85585466    -0.78930
C1313       C  0.51789345  0.10825950  0.81460092     1.01690
O1314       O  0.59498107  0.12971105  0.80846181    -0.86250
O1315       O  0.61355168  0.18129337  0.84037157    -0.83310
C1316       C  0.62738849  0.18279953  0.87521940     0.97230
O1317       O  0.61613940  0.17197526  0.91259775    -0.83340
O1318       O  0.58313717  0.12745006  0.96307976    -0.85950
C1319       C  0.58672760  0.10890908  0.94607884     1.01700
O1320       O  0.57808720  0.09966527  0.90699991    -0.78760
O1321       O  0.55780726  0.09314752  0.82073452    -0.78910
C1322       C  0.58215339  0.10412233  0.81018488     1.01670
Cr1323     Cr  0.57642345  0.15100969  0.82212218     1.93740
Cr1324     Cr  0.57749084  0.15543239  0.92788922     1.93210
Cr1325     Cr  0.54790396  0.10095266  0.88124395     1.39100
O1326       O  0.56765052  0.13630799  0.87702083    -1.24000
O1327       O  0.71911088  0.05835677  0.73715043    -0.86250
O1328       O  0.70602861  0.02926281  0.81913484    -0.83300
C1329       C  0.69044591  0.01519335  0.85145081     0.97210
O1330       O  0.66761028  0.99609434  0.84148954    -0.83330
O1331       O  0.64403701  0.03000011  0.82452483    -0.85980
C1332       C  0.63584435  0.04284255  0.80004196     1.01740
O1333       O  0.63451097  0.04023612  0.75753280    -0.78740
O1334       O  0.68765419  0.06946909  0.73750816    -0.78930
C1335       C  0.71215621  0.07609231  0.74000528     1.01690
O1336       O  0.69582660  0.00950040  0.68287489    -0.86250
O1337       O  0.68227895  0.97833309  0.76319059    -0.83310
C1338       C  0.65760226  0.95961695  0.76201279     0.97230
O1339       O  0.63868625  0.96407098  0.77030124    -0.83340
O1340       O  0.60980696  0.98915131  0.76186462    -0.85950
C1341       C  0.60565670  0.98660937  0.71961340     1.01700
O1342       O  0.62508972  0.00036368  0.69191638    -0.78760
O1343       O  0.68024800  0.03598846  0.66404345    -0.78910
C1344       C  0.69009477  0.02170445  0.65248667     1.01670
Cr1345     Cr  0.69842983  0.01854914  0.75119518     1.93740
Cr1346     Cr  0.64234660  0.99685777  0.79655499     1.93210
Cr1347     Cr  0.65767921  0.03477646  0.71541728     1.39100
O1348       O  0.66634043  0.01653463  0.75378745    -1.24000
O1349       O  0.70811703  0.02474003  0.57393546    -0.86250
O1350       O  0.68316241  0.98127621  0.51293154    -0.83300
C1351       C  0.66630453  0.96470841  0.48488894     0.97210
O1352       O  0.65760964  0.97367574  0.95317179    -0.83330
O1353       O  0.62157409  0.98120450  0.50170657    -0.85980
C1354       C  0.61301147  0.99105479  0.53109509     1.01740
O1355       O  0.62719959  0.01513239  0.54392439    -0.78740
O1356       O  0.66639838  0.01233072  0.58648402    -0.78930
C1357       C  0.68849465  0.01716260  0.60220017     1.01690
O1358       O  0.72428217  0.06031277  0.99248966    -0.86250
O1359       O  0.70458984  0.01577038  0.93132140    -0.83310
C1360       C  0.69339529  0.02284788  0.90062820     0.97230
O1361       O  0.67646672  0.02893907  0.91345885    -0.83340
O1362       O  0.63598145  0.03093718  0.95650254    -0.85950
C1363       C  0.64472427  0.05438262  0.97292748     1.01700
O1364       O  0.66408654  0.06384726  0.00079853    -0.78760
O1365       O  0.70570823  0.06689147  0.55231816    -0.78910
C1366       C  0.72323830  0.07637180  0.02088654     1.01670
Cr1367     Cr  0.70357603  0.02069519  0.50240987     1.93740
Cr1368     Cr  0.64966660  0.00477891  0.95819035     1.93210
Cr1369     Cr  0.66667081  0.03860917  0.54363474     1.39100
O1370       O  0.67325529  0.02156544  0.50101382    -1.24000
O1371       O  0.84726447  0.24041996  0.85127713    -0.86250
O1372       O  0.83161687  0.22280700  0.93941655    -0.83300
C1373       C  0.84220079  0.24645659  0.95461652     0.97210
O1374       O  0.83012648  0.25950857  0.94765988    -0.83330
O1375       O  0.79625884  0.27522365  0.90533222    -0.85980
C1376       C  0.80711738  0.28886267  0.86962054     1.01740
O1377       O  0.81298926  0.27817384  0.83771533    -0.78740
O1378       O  0.82632314  0.24508613  0.79267676    -0.78930
C1379       C  0.84797073  0.24914240  0.81150158     1.01690
O1380       O  0.80308654  0.19448388  0.81675638    -0.86250
O1381       O  0.78278287  0.18019212  0.90549921    -0.83310
C1382       C  0.77746932  0.18240825  0.94649700     0.97230
O1383       O  0.78296260  0.20538532  0.96220111    -0.83340
O1384       O  0.75217744  0.22179839  0.91318309    -0.85950
C1385       C  0.74279146  0.22632620  0.87731143     1.01700
O1386       O  0.75751430  0.23734942  0.84265537    -0.78760
O1387       O  0.76976000  0.20080672  0.80426513    -0.78910
C1388       C  0.78027187  0.18621843  0.79992540     1.01670
Cr1389     Cr  0.81490129  0.21077386  0.87805499     1.93740
Cr1390     Cr  0.79106837  0.23990716  0.92865290     1.93210
Cr1391     Cr  0.79208797  0.23954457  0.82308514     1.39100
O1392       O  0.79905852  0.23016874  0.87656702    -1.24000
O1393       O  0.90099938  0.48709650  0.94241498    -0.86250
O1394       O  0.85301575  0.46554279  0.89986087    -0.83300
C1395       C  0.84674236  0.47121408  0.86175275     0.97210
O1396       O  0.85452916  0.46612296  0.82482655    -0.83330
O1397       O  0.90519097  0.49155826  0.79087195    -0.85980
C1398       C  0.93026466  0.50118833  0.78982879     1.01740
O1399       O  0.93851613  0.48631898  0.80432330    -0.78740
O1400       O  0.93044695  0.50767287  0.88591217    -0.78930
C1401       C  0.91801550  0.50859073  0.92101281     1.01690
O1402       O  0.89570488  0.43112710  0.94035520    -0.86250
O1403       O  0.84849866  0.41282591  0.89718203    -0.83310
C1404       C  0.84188627  0.40176549  0.85848335     0.97230
O1405       O  0.85170459  0.41528377  0.82255567    -0.83340
O1406       O  0.90188666  0.43668240  0.78885570    -0.85950
C1407       C  0.91406355  0.42775846  0.81365498     1.01700
O1408       O  0.92533774  0.43933954  0.85061412    -0.78760
O1409       O  0.93246819  0.46805141  0.93335848    -0.78910
C1410       C  0.92086738  0.44410474  0.94560037     1.01670
Cr1411     Cr  0.87581117  0.44975058  0.91689648     1.93740
Cr1412     Cr  0.87950922  0.45297767  0.81014958     1.93210
Cr1413     Cr  0.92950573  0.47431609  0.86824303     1.39100
O1414       O  0.89405901  0.45876008  0.86501299    -1.24000
O1415       O  0.05081964  0.73112294  0.74068209    -0.86250
O1416       O  0.00626408  0.70925730  0.68156249    -0.83300
C1417       C  0.01291889  0.69670490  0.65295743     0.97210
O1418       O  0.01673203  0.67841760  0.66759747    -0.83330
O1419       O  0.02120260  0.64035266  0.71235245    -0.85980
C1420       C  0.04584976  0.65115619  0.72298921     1.01740
O1421       O  0.05644540  0.67259528  0.74583984    -0.78740
O1422       O  0.06099993  0.71435289  0.79885178    -0.78930
C1423       C  0.06832350  0.73201411  0.76767607     1.01690
O1424       O  0.01695770  0.71619946  0.82338513    -0.86250
O1425       O  0.97233301  0.68881069  0.76542567    -0.83310
C1426       C  0.95548164  0.67091832  0.73891209     0.97230
O1427       O  0.96411918  0.66134982  0.70862346    -0.83340
O1428       O  0.97361670  0.62756318  0.76255438    -0.85950
C1429       C  0.98603983  0.61765070  0.78237921     1.01700
O1430       O  0.00999126  0.63351323  0.79603479    -0.78760
O1431       O  0.01177837  0.67667013  0.84215033    -0.78910
C1432       C  0.01273699  0.69833110  0.85375538     1.01670
Cr1433     Cr  0.01169499  0.70956665  0.75286415     1.93740
Cr1434     Cr  0.99493393  0.65382190  0.71492527     1.93210
Cr1435     Cr  0.03338963  0.67477759  0.79360071     1.39100
O1436       O  0.01315931  0.67938524  0.75423494    -1.24000
O1437       O  0.01933795  0.71920436  0.93163749    -0.86250
O1438       O  0.97444980  0.69450785  0.99208604    -0.83300
C1439       C  0.95727177  0.67449888  0.01491771     0.97210
O1440       O  0.96528778  0.66586982  0.54841470    -0.83330
O1441       O  0.96743527  0.62847392  0.00345618    -0.85980
C1442       C  0.97314876  0.61822681  0.97145884     1.01740
O1443       O  0.99564234  0.63136274  0.95092243    -0.78740
O1444       O  0.99777672  0.67670434  0.92154812    -0.78930
C1445       C  0.00848621  0.69936183  0.90381144     1.01690
O1446       O  0.05173069  0.72888255  0.51412138    -0.86250
O1447       O  0.00741760  0.71108358  0.57435717    -0.83310
C1448       C  0.01415602  0.69812374  0.60183433     0.97230
O1449       O  0.01947471  0.68130817  0.58493867    -0.83340
O1450       O  0.01955055  0.63889710  0.53829992    -0.85950
C1451       C  0.04117340  0.64563104  0.51517619     1.01700
O1452       O  0.04879049  0.66371350  0.48546680    -0.78760
O1453       O  0.05664334  0.71000743  0.95199950    -0.78910
C1454       C  0.06675347  0.72569195  0.48656203     1.01670
Cr1455     Cr  0.01310920  0.71177876  0.00307606     1.93740
Cr1456     Cr  0.99429699  0.65528060  0.54262525     1.93210
Cr1457     Cr  0.02386802  0.67131871  0.95381919     1.39100
O1458       O  0.01113155  0.67938871  0.00088284    -1.24000
O1459       O  0.57645412  0.50798616  0.90668540    -0.86250
O1460       O  0.55987492  0.49497473  0.82002417    -0.83300
C1461       C  0.58449837  0.50535525  0.80998465     0.97210
O1462       O  0.59492200  0.49067875  0.81218355    -0.83330
O1463       O  0.60895073  0.45661162  0.85061658    -0.85980
C1464       C  0.62288122  0.46947490  0.88511653     1.01740
O1465       O  0.61085525  0.47064972  0.92043862    -0.78740
O1466       O  0.57813199  0.48542595  0.96608732    -0.78930
C1467       C  0.58227223  0.50757382  0.94765983     1.01690
O1468       O  0.52884771  0.46395453  0.94138292    -0.86250
O1469       O  0.51486798  0.44614389  0.85423739    -0.83310
C1470       C  0.51551308  0.43641131  0.81636480     0.97230
O1471       O  0.53806986  0.44357809  0.79667215    -0.83340
O1472       O  0.55288805  0.41255623  0.84205896    -0.85950
C1473       C  0.55361499  0.40020335  0.87700260     1.01700
O1474       O  0.56624252  0.41395190  0.91199857    -0.78760
O1475       O  0.53230714  0.42868855  0.94965558    -0.78910
C1476       C  0.51782886  0.43936801  0.95162895     1.01670
Cr1477     Cr  0.54604462  0.47710668  0.88041535     1.93740
Cr1478     Cr  0.57319279  0.45149294  0.82851331     1.93210
Cr1479     Cr  0.57152410  0.45028554  0.93393343     1.39100
O1480       O  0.56383814  0.45946671  0.88095915    -1.24000
O1481       O  0.35294616  0.39896205  0.75718402    -0.86250
O1482       O  0.30837171  0.36008945  0.80012093    -0.83300
C1483       C  0.29146870  0.35248932  0.76746728     0.97210
O1484       O  0.29031479  0.33522231  0.73931838    -0.83330
O1485       O  0.30798273  0.30816981  0.67929376    -0.85980
C1486       C  0.31936625  0.32770304  0.65086994     1.01740
O1487       O  0.33532296  0.35042485  0.66696145    -0.78740
O1488       O  0.37808180  0.39358482  0.70709053    -0.78930
C1489       C  0.37147411  0.40874803  0.72815578     1.01690
O1490       O  0.38793082  0.38273373  0.79651245    -0.86250
O1491       O  0.34267900  0.34056685  0.83731634    -0.83310
C1492       C  0.31960257  0.32290335  0.85065381     0.97230
O1493       O  0.30087359  0.31229459  0.82096196    -0.83340
O1494       O  0.32683762  0.29374246  0.76146834    -0.85950
C1495       C  0.34599051  0.29651305  0.73637593     1.01700
O1496       O  0.35417842  0.31351843  0.70327205    -0.78760
O1497       O  0.39316471  0.35770982  0.74547782    -0.78910
C1498       C  0.40289281  0.37581694  0.77527361     1.01670
Cr1499     Cr  0.34729098  0.36864127  0.79561032     1.93740
Cr1500     Cr  0.30836818  0.31430885  0.75028430     1.93210
Cr1501     Cr  0.36323186  0.35297699  0.70750384     1.39100
O1502       O  0.34013874  0.34545498  0.75165347    -1.24000
O1503       O  0.29871324  0.30927560  0.92955062    -0.86250
O1504       O  0.32541954  0.29090077  0.98993996    -0.83300
C1505       C  0.34323145  0.29193510  0.01636344     0.97210
O1506       O  0.35322435  0.31037506  0.54675076    -0.83330
O1507       O  0.39190364  0.35299591  0.99708088    -0.85980
C1508       C  0.40095614  0.37050334  0.96585200     1.01740
O1509       O  0.38510103  0.37604987  0.94533607    -0.78740
O1510       O  0.34077237  0.33164447  0.91891407    -0.78930
C1511       C  0.31834842  0.31870301  0.90136755     1.01690
O1512       O  0.28786367  0.33109073  0.51193056    -0.86250
O1513       O  0.30759448  0.30699038  0.57238669    -0.83310
C1514       C  0.32032979  0.32697130  0.59969455     0.97230
O1515       O  0.33823427  0.34895641  0.58328058    -0.83340
O1516       O  0.37868422  0.39033052  0.53569460    -0.85950
C1517       C  0.37342950  0.40609598  0.51303287     1.01700
O1518       O  0.35494513  0.39648251  0.48374508    -0.78760
O1519       O  0.30709882  0.35659912  0.95090874    -0.78910
C1520       C  0.29012524  0.34916066  0.48462502     1.01670
Cr1521     Cr  0.30693383  0.31130469  0.00086174     1.93740
Cr1522     Cr  0.36349871  0.34988165  0.53886774     1.93210
Cr1523     Cr  0.34585900  0.36323412  0.95114813     1.39100
O1524       O  0.33883966  0.34241752  0.99826013    -1.24000
O1525       O  0.45725922  0.53307657  0.68596243    -0.86250
O1526       O  0.44103656  0.51845880  0.59799928    -0.83300
C1527       C  0.43451135  0.51890260  0.55721575     0.97210
O1528       O  0.43950682  0.54108074  0.53812401    -0.83330
O1529       O  0.40755354  0.55775503  0.58064992    -0.85980
C1530       C  0.39587590  0.55918904  0.61641110     1.01740
O1531       O  0.40984285  0.57277661  0.65033760    -0.78740
O1532       O  0.42361095  0.53967999  0.69199310    -0.78930
C1533       C  0.43295326  0.52423679  0.69637161     1.01690
O1534       O  0.50272923  0.58106177  0.65004601    -0.86250
O1535       O  0.48875371  0.56046145  0.56368161    -0.83310
C1536       C  0.50023730  0.58442943  0.55004157     0.97230
O1537       O  0.48686054  0.59646987  0.55073467    -0.83340
O1538       O  0.45366725  0.61397438  0.58610549    -0.85950
C1539       C  0.46584532  0.62842112  0.62070330     1.01700
O1540       O  0.46621365  0.61708278  0.65734053    -0.78760
O1541       O  0.47995637  0.58604251  0.70564159    -0.78910
C1542       C  0.50227899  0.59256103  0.68611724     1.01670
Cr1543     Cr  0.47137169  0.54965941  0.62465970     1.93740
Cr1544     Cr  0.44730434  0.57684186  0.56739368     1.93210
Cr1545     Cr  0.44547542  0.57814181  0.67298399     1.39340
O1546       O  0.45439526  0.56828851  0.62158358    -1.24000
O1547       O  0.66873507  0.63100342  0.99253709    -0.86250
O1548       O  0.71108158  0.66688258  0.54615975    -0.83300
C1549       C  0.72925613  0.67635216  0.01570642     0.97210
O1550       O  0.72962236  0.69308525  0.98726190    -0.83330
O1551       O  0.71165352  0.71975536  0.92783079    -0.85980
C1552       C  0.69802808  0.70120571  0.89861665     1.01740
O1553       O  0.67887928  0.67923080  0.91261869    -0.78740
O1554       O  0.63908937  0.63635708  0.95573523    -0.78930
C1555       C  0.64735350  0.62082322  0.96975758     1.01690
O1556       O  0.63201257  0.64168636  0.53970087    -0.86250
O1557       O  0.67419468  0.68193283  0.58457008    -0.83310
C1558       C  0.69622970  0.70081207  0.59876449     0.97230
O1559       O  0.71572909  0.71327560  0.57025415    -0.83340
O1560       O  0.69301715  0.73386450  0.51097924    -0.85950
C1561       C  0.67481871  0.73364319  0.48715477     1.01700
O1562       O  0.66427767  0.71618316  0.95563076    -0.78760
O1563       O  0.62751258  0.67252764  0.50537723    -0.78910
C1564       C  0.61691741  0.65062796  0.52713558     1.01670
Cr1565     Cr  0.67230065  0.65728897  0.53873308     1.93740
Cr1566     Cr  0.71073776  0.71315442  0.49886570     1.93210
Cr1567     Cr  0.65436854  0.67685718  0.95918958     1.39100
O1568       O  0.67916252  0.68251825  0.49884773    -1.24000
O1569       O  0.71081532  0.72164891  0.81975102    -0.86250
O1570       O  0.72603196  0.69302833  0.75937342    -0.83300
C1571       C  0.72304526  0.67450859  0.73243183     0.97210
O1572       O  0.70510970  0.66616210  0.70127807    -0.83330
O1573       O  0.65970681  0.62945805  0.74533397    -0.85980
C1574       C  0.64281503  0.62113842  0.77714433     1.01740
O1575       O  0.63749261  0.63729308  0.79788422    -0.78740
O1576       O  0.68363189  0.67943465  0.83059854    -0.78930
C1577       C  0.69971131  0.70174361  0.84756005     1.01690
O1578       O  0.69145079  0.73610363  0.73722896    -0.86250
O1579       O  0.71523214  0.71458130  0.67766329    -0.83310
C1580       C  0.69577496  0.70353169  0.64944721     0.97230
O1581       O  0.67278940  0.68907999  0.66580700    -0.83340
O1582       O  0.62763870  0.64952182  0.70655129    -0.85950
C1583       C  0.61383282  0.65751887  0.72855128     1.01700
O1584       O  0.62423881  0.67469821  0.75976178    -0.78760
O1585       O  0.66596765  0.71828242  0.79802180    -0.78910
C1586       C  0.67315368  0.73424289  0.76355620     1.01670
Cr1587     Cr  0.70896201  0.71465588  0.74859918     1.93740
Cr1588     Cr  0.66713671  0.66037260  0.70648546     1.93210
Cr1589     Cr  0.65465167  0.67819227  0.79500944     1.39100
O1590       O  0.67636197  0.68415468  0.74950825    -1.24000
O1591       O  0.22753079  0.39389540  0.59693961    -0.86250
O1592       O  0.21088324  0.39263885  0.68724663    -0.83300
C1593       C  0.23455609  0.40559421  0.70197059     0.97210
O1594       O  0.24767986  0.43089736  0.69562557    -0.83330
O1595       O  0.26560802  0.48071731  0.65375509    -0.85980
C1596       C  0.27888019  0.48383309  0.61730893     1.01740
O1597       O  0.26721491  0.46999384  0.58226273    -0.78740
O1598       O  0.23229388  0.42115899  0.53951046    -0.78930
C1599       C  0.23533926  0.40238062  0.55675569     1.01690
O1600       O  0.18145463  0.39280452  0.56576998    -0.86250
O1601       O  0.16896651  0.39997985  0.65533575    -0.83310
C1602       C  0.17105949  0.40930147  0.69497297     0.97230
O1603       O  0.19424938  0.42599612  0.71096743    -0.83340
O1604       O  0.21226527  0.47337108  0.66258226    -0.85950
C1605       C  0.21586086  0.48750971  0.62727528     1.01700
O1606       O  0.22522774  0.48286357  0.59137652    -0.78760
O1607       O  0.18845233  0.43310741  0.55223847    -0.78910
C1608       C  0.17366367  0.40771733  0.54862358     1.01670
Cr1609     Cr  0.19880237  0.39773649  0.62624729     1.93740
Cr1610     Cr  0.22924675  0.45135214  0.67672223     1.93210
Cr1611     Cr  0.22749550  0.45037555  0.57049009     1.39100
O1612       O  0.21887054  0.43354589  0.62433757    -1.24000
O1613       O  0.62937211  0.79884087  0.66222031    -0.86250
O1614       O  0.63608839  0.81494926  0.57222410    -0.83300
C1615       C  0.62329573  0.79170308  0.55506659     0.97210
O1616       O  0.59784016  0.77888732  0.55656389    -0.83330
O1617       O  0.54593939  0.76057558  0.58961843    -0.85980
C1618       C  0.54196152  0.74588758  0.62455281     1.01740
O1619       O  0.55502455  0.75654398  0.66067179    -0.78740
O1620       O  0.59879249  0.79136301  0.71427525    -0.78930
C1621       C  0.61833535  0.78893463  0.70000277     1.01690
O1622       O  0.62774133  0.84506145  0.68844575    -0.86250
O1623       O  0.62782182  0.85758728  0.59625968    -0.83310
C1624       C  0.62137056  0.85567006  0.55467329     0.97230
O1625       O  0.60440967  0.83252995  0.53851684    -0.83340
O1626       O  0.55414751  0.81371821  0.58051293    -0.85950
C1627       C  0.53800601  0.80874435  0.61344560     1.01700
O1628       O  0.54036689  0.79786152  0.64955535    -0.78760
O1629       O  0.58553766  0.83375166  0.69662014    -0.78910
C1630       C  0.61023080  0.85017745  0.70308954     1.01670
Cr1631     Cr  0.62726577  0.82744335  0.62966901     1.93740
Cr1632     Cr  0.57685055  0.79721506  0.57061453     1.93210
Cr1633     Cr  0.57159713  0.79579027  0.67625910     1.39100
O1634       O  0.59165838  0.80686673  0.62556823    -1.24000
O1635       O  0.78809437  0.63450545  0.85039122    -0.86250
O1636       O  0.80978964  0.63673850  0.93807494    -0.83300
C1637       C  0.78661033  0.62436467  0.95452862     0.97210
O1638       O  0.77300645  0.59908296  0.94878249    -0.83330
O1639       O  0.75376285  0.54937707  0.90697047    -0.85980
C1640       C  0.73988165  0.54534260  0.87120578     1.01740
O1641       O  0.75087503  0.55822603  0.83476879    -0.78740
O1642       O  0.78316116  0.60782479  0.79224742    -0.78930
C1643       C  0.77950077  0.62586430  0.81057863     1.01690
O1644       O  0.83419760  0.63815722  0.81223502    -0.86250
O1645       O  0.84977828  0.63044522  0.89907999    -0.83310
C1646       C  0.84934638  0.61995692  0.93747402     0.97230
O1647       O  0.82688017  0.60343777  0.95623253    -0.83340
O1648       O  0.80653137  0.55563273  0.91033563    -0.85950
C1649       C  0.80462619  0.54383744  0.87301811     1.01700
O1650       O  0.79557919  0.54905969  0.83753699    -0.78760
O1651       O  0.82936860  0.59910094  0.79897115    -0.78910
C1652       C  0.84329483  0.62453979  0.79466951     1.01670
Cr1653     Cr  0.81882142  0.63205549  0.87491593     1.93740
Cr1654     Cr  0.79062991  0.57833399  0.92659427     1.93210
Cr1655     Cr  0.79045795  0.57984150  0.81996853     1.39100
O1656       O  0.79959778  0.59618764  0.87376636    -1.24000
C1657       C  0.64396228  0.78163588  0.76373576    -0.02750
C1658       C  0.62764926  0.77248850  0.72423698     0.06930
C1659       C  0.62636576  0.75107463  0.69925088    -0.02860
C1660       C  0.64393537  0.74170019  0.70942945    -0.02870
C1661       C  0.65827359  0.74843190  0.75091746     0.07060
C1662       C  0.65824594  0.76866943  0.77831519    -0.03060
Br1663     Br  0.68163060  0.78186494  0.83055449    -0.01610
Br1664     Br  0.64884601  0.81325084  0.79493788    -0.01680
Br1665     Br  0.65317762  0.72631868  0.66014172    -0.01640
Br1666     Br  0.60206440  0.73617755  0.64780562    -0.01620
C1667       C  0.72897830  0.63380811  0.73849840    -0.02750
C1668       C  0.74022385  0.66225101  0.73971095     0.06930
C1669       C  0.76661937  0.67856951  0.75698677    -0.02860
C1670       C  0.77987255  0.66654907  0.77840520    -0.02870
C1671       C  0.76666642  0.63818345  0.78369629     0.07060
C1672       C  0.74176728  0.62180598  0.76173243    -0.03060
Br1673     Br  0.72395013  0.58281056  0.76607514    -0.01610
Br1674     Br  0.69606843  0.61065413  0.70598301    -0.01680
Br1675     Br  0.81666077  0.68903965  0.79851965    -0.01640
Br1676     Br  0.78517304  0.71755989  0.75033675    -0.01620
C1677       C  0.64369400  0.75285758  0.47420258    -0.02750
C1678       C  0.66498476  0.75281372  0.49886425     0.06930
C1679       C  0.67512580  0.76961558  0.53828696    -0.02860
C1680       C  0.66202854  0.78293809  0.55541608    -0.02870
C1681       C  0.63862343  0.77989232  0.53391289     0.07060
C1682       C  0.63053954  0.76612868  0.49194878    -0.03060
Br1683     Br  0.60266284  0.76724484  0.95679627    -0.01610
Br1684     Br  0.63271509  0.73616019  0.91486189    -0.01680
Br1685     Br  0.67666777  0.80494436  0.60962443    -0.01640
Br1686     Br  0.70719460  0.77557226  0.57092933    -0.01620
C1687       C  0.77137261  0.68048939  0.98129128    -0.02750
C1688       C  0.74914064  0.66685315  0.01126157     0.06930
C1689       C  0.74481022  0.64262182  0.03236824    -0.02860
C1690       C  0.75778728  0.62905570  0.01518614    -0.02870
C1691       C  0.77598913  0.64016263  0.97824568     0.07060
C1692       C  0.78458741  0.66722528  0.96449768    -0.03060
Br1693     Br  0.81422030  0.68718341  0.92223110    -0.01610
Br1694     Br  0.78542759  0.71824814  0.96532349    -0.01680
Br1695     Br  0.75246683  0.59660224  0.04511268    -0.01640
Br1696     Br  0.72346077  0.62902073  0.58732130    -0.01620
C1697       C  0.53845250  0.61153261  0.74596898    -0.02750
C1698       C  0.52866597  0.61383246  0.70334337     0.06930
C1699       C  0.54647981  0.63349689  0.67189554    -0.02860
C1700       C  0.57433752  0.64718059  0.67923869    -0.02870
C1701       C  0.58444923  0.64448387  0.72112331     0.07060
C1702       C  0.56618466  0.62787040  0.75566511    -0.03060
Br1703     Br  0.57908585  0.62545909  0.81501191    -0.01610
Br1704     Br  0.51452808  0.58448823  0.78913572    -0.01680
Br1705     Br  0.59827132  0.66828622  0.63073891    -0.01640
Br1706     Br  0.53275735  0.64228320  0.61887614    -0.01620
C1707       C  0.57540391  0.60932215  0.55933135    -0.02750
C1708       C  0.58676637  0.63325746  0.53208519     0.06930
C1709       C  0.56892703  0.63804428  0.50505345    -0.02860
C1710       C  0.54078412  0.62014025  0.50719627    -0.02870
C1711       C  0.52964082  0.59854384  0.53851282     0.07060
C1712       C  0.54723341  0.59206848  0.56213233    -0.03060
Br1713     Br  0.53378669  0.55899364  0.59772028    -0.01610
Br1714     Br  0.59752509  0.59903631  0.59437100    -0.01680
Br1715     Br  0.51760188  0.62236656  0.96195118    -0.01640
Br1716     Br  0.58167825  0.66819846  0.96296126    -0.01620
C1717       C  0.32504950  0.50427755  0.65249356    -0.02750
C1718       C  0.30869039  0.50405788  0.61660263     0.06930
C1719       C  0.32083869  0.52426102  0.58236644    -0.02860
C1720       C  0.34914645  0.54288117  0.58264687    -0.02870
C1721       C  0.36537057  0.54320754  0.61927250     0.07060
C1722       C  0.35216276  0.52521069  0.65625991    -0.03060
Br1723     Br  0.36967322  0.52896846  0.71389526    -0.01610
Br1724     Br  0.31167348  0.47375346  0.69336370    -0.01680
Br1725     Br  0.36532396  0.56981305  0.53516767    -0.01640
Br1726     Br  0.29860642  0.52736748  0.53639517    -0.01620
C1727       C  0.50401920  0.70255017  0.66064575    -0.02750
C1728       C  0.52117761  0.71599644  0.62290378     0.06930
C1729       C  0.51736331  0.70085296  0.58256847    -0.02860
C1730       C  0.49687622  0.67322315  0.57990209    -0.02870
C1731       C  0.48146848  0.65913123  0.61885923     0.07060
C1732       C  0.48461094  0.67447968  0.65875133    -0.03060
Br1733     Br  0.46091103  0.65757971  0.71046825    -0.01610
Br1734     Br  0.50618476  0.72240470  0.71525647    -0.01680
Br1735     Br  0.49046210  0.65520201  0.52206427    -0.01640
Br1736     Br  0.54201717  0.71678734  0.53174243    -0.01620
C1737       C  0.41685362  0.44778199  0.53659735    -0.02750
C1738       C  0.39019968  0.43615774  0.51899981     0.06930
C1739       C  0.38104804  0.45394613  0.50394054    -0.02860
C1740       C  0.39664590  0.48201378  0.51247181    -0.02870
C1741       C  0.42198369  0.49272762  0.53322278     0.07060
C1742       C  0.43288625  0.47592761  0.54120638    -0.03060
Br1743     Br  0.47037863  0.49194331  0.55890715    -0.01610
Br1744     Br  0.43286856  0.42646134  0.55527136    -0.01680
Br1745     Br  0.38259219  0.50557507  0.49852573    -0.01640
Br1746     Br  0.34717277  0.44120718  0.47247801    -0.01620
C1747       C  0.28849164  0.38592586  0.52640430    -0.02750
C1748       C  0.27571607  0.36395013  0.49627807     0.06930
C1749       C  0.24818485  0.35374082  0.48649459    -0.02860
C1750       C  0.23463886  0.36660309  0.50511184    -0.02870
C1751       C  0.24912072  0.39072186  0.53074380     0.07060
C1752       C  0.27648166  0.40087323  0.53948563    -0.03060
Br1753     Br  0.29705125  0.43395662  0.57361760    -0.01610
Br1754     Br  0.31732498  0.38948686  0.56277623    -0.01680
Br1755     Br  0.19611289  0.35013289  0.49908329    -0.01640
Br1756     Br  0.22845671  0.32027233  0.45350881    -0.01620
C1757       C  0.38490859  0.44961413  0.68005557    -0.02750
C1758       C  0.38666138  0.43851378  0.72137157     0.06930
C1759       C  0.40196912  0.45616105  0.75712854    -0.02860
C1760       C  0.41757861  0.48436673  0.74932932    -0.02870
C1761       C  0.41501502  0.49526815  0.70790575     0.07060
C1762       C  0.39643327  0.47766124  0.67523158    -0.03060
Br1763     Br  0.38336670  0.49073656  0.62709526    -0.01610
Br1764     Br  0.36740592  0.42644363  0.62977604    -0.01680
Br1765     Br  0.44105746  0.50822736  0.79603755    -0.01640
Br1766     Br  0.40169565  0.44201501  0.81654627    -0.01620
C1767       C  0.28067816  0.39058291  0.77522704    -0.02750
C1768       C  0.27345347  0.36414538  0.76034926     0.06930
C1769       C  0.25006229  0.34983119  0.73318994    -0.02860
C1770       C  0.23768285  0.36329427  0.71355612    -0.02870
C1771       C  0.24635172  0.39058836  0.72534309     0.07060
C1772       C  0.26627048  0.40305021  0.75943513    -0.03060
Br1773     Br  0.27232445  0.43609917  0.78778062    -0.01610
Br1774     Br  0.31053241  0.41077829  0.81627666    -0.01680
Br1775     Br  0.20987619  0.34364392  0.66846029    -0.01640
Br1776     Br  0.23357165  0.31106021  0.72429627    -0.01620
C1777       C  0.47856719  0.42413744  0.75966582    -0.02750
C1778       C  0.48889119  0.41694093  0.79704821     0.06930
C1779       C  0.47106983  0.39464904  0.82445084    -0.02860
C1780       C  0.44305638  0.38199283  0.81835710    -0.02870
C1781       C  0.43246806  0.39005162  0.78269070     0.07060
C1782       C  0.45050707  0.41017464  0.75159684    -0.03060
Br1783     Br  0.43747355  0.41926276  0.69798733    -0.01610
Br1784     Br  0.50269182  0.45405909  0.72122242    -0.01680
Br1785     Br  0.41915881  0.35384393  0.85922254    -0.01640
Br1786     Br  0.48512062  0.38124885  0.87044854    -0.01620
C1787       C  0.47604176  0.39611638  0.97651590    -0.02750
C1788       C  0.48794101  0.42288910  0.95931929     0.06930
C1789       C  0.47065888  0.43210555  0.94275023    -0.02860
C1790       C  0.44245343  0.41468110  0.94256687    -0.02870
C1791       C  0.43076677  0.38745831  0.95796786     0.07060
C1792       C  0.44809497  0.37816232  0.97247728    -0.03060
Br1793     Br  0.43444501  0.34000293  0.48030198    -0.01610
Br1794     Br  0.49727925  0.38348304  0.00757855    -0.01680
Br1795     Br  0.42065236  0.42955751  0.92147653    -0.01640
Br1796     Br  0.48433451  0.46874179  0.92007687    -0.01620
C1797       C  0.63723829  0.58051330  0.81963009    -0.02750
C1798       C  0.62775710  0.59169851  0.78700273     0.06930
C1799       C  0.60540533  0.57426621  0.75971359    -0.02860
C1800       C  0.59204211  0.54605210  0.76598086    -0.02870
C1801       C  0.60093791  0.53475289  0.79940940     0.07060
C1802       C  0.62401099  0.55214144  0.82573914    -0.03060
Br1803     Br  0.63760405  0.53772993  0.87098549    -0.01610
Br1804     Br  0.66858849  0.60427055  0.85538610    -0.01680
Br1805     Br  0.56236810  0.52270178  0.72670500    -0.01640
Br1806     Br  0.59288301  0.58851955  0.71274197    -0.01620
C1807       C  0.58416939  0.55124705  0.95531295    -0.02750
C1808       C  0.59303814  0.53385838  0.97131807     0.06930
C1809       C  0.61742678  0.54500511  0.99443612    -0.02860
C1810       C  0.63631519  0.57286009  0.99014898    -0.02870
C1811       C  0.62910614  0.59061934  0.96801917     0.07060
C1812       C  0.60205574  0.57926452  0.95215350    -0.03060
Br1813     Br  0.58811543  0.60028159  0.92366364    -0.01610
Br1814     Br  0.54686012  0.53585008  0.93718803    -0.01680
Br1815     Br  0.67208262  0.58458260  0.01229089    -0.01640
Br1816     Br  0.62205798  0.52292746  0.03867065    -0.01620
C1817       C  0.69681626  0.50445441  0.84055551    -0.02750
C1818       C  0.71007308  0.52513418  0.87341020     0.06930
C1819       C  0.69516246  0.52482086  0.91180027    -0.02860
C1820       C  0.66849719  0.50361968  0.91884417    -0.02870
C1821       C  0.65366289  0.48534178  0.88326826     0.07060
C1822       C  0.66869091  0.48523559  0.84457427    -0.03060
Br1823     Br  0.65213809  0.45723713  0.79906260    -0.01610
Br1824     Br  0.71747774  0.50152889  0.79126242    -0.01680
Br1825     Br  0.65498334  0.49795960  0.98034127    -0.01640
Br1826     Br  0.71001217  0.55497903  0.95330637    -0.01620
C1827       C  0.92383944  0.65877431  0.95036172    -0.02750
C1828       C  0.92862856  0.65982333  0.99807195     0.06930
C1829       C  0.90603446  0.64477794  0.02706431    -0.02860
C1830       C  0.87949865  0.63063545  0.00853077    -0.02870
C1831       C  0.87578643  0.62896955  0.96048276     0.07060
C1832       C  0.89877971  0.64015029  0.93261457    -0.03060
Br1833     Br  0.89683048  0.62846754  0.87021027    -0.01610
Br1834     Br  0.94811816  0.68532816  0.90705431    -0.01680
Br1835     Br  0.84893317  0.61380861  0.54932326    -0.01640
Br1836     Br  0.91084404  0.64616701  0.59214455    -0.01620
C1837       C  0.91739338  0.67709976  0.76844891    -0.02750
C1838       C  0.92573313  0.66111823  0.74432401     0.06930
C1839       C  0.90524213  0.63533133  0.72847766    -0.02860
C1840       C  0.87781499  0.62537031  0.73954874    -0.02870
C1841       C  0.87061714  0.63880917  0.77191968     0.07060
C1842       C  0.89057047  0.66565436  0.78440535    -0.03060
Br1843     Br  0.88286319  0.68726615  0.82580504    -0.01610
Br1844     Br  0.94211481  0.71538763  0.77832800    -0.01680
Br1845     Br  0.84991876  0.59487455  0.70646888    -0.01640
Br1846     Br  0.91346667  0.61194341  0.69379131    -0.01620
C1847       C  0.92832588  0.55544669  0.90559072    -0.02750
C1848       C  0.92492755  0.53548189  0.93758528     0.06930
C1849       C  0.93141674  0.54260229  0.98363970    -0.02860
C1850       C  0.94451935  0.57004072  0.99573541    -0.02870
C1851       C  0.95376451  0.59002411  0.96094094     0.07060
C1852       C  0.94362874  0.58283922  0.91683684    -0.03060
Br1853     Br  0.94896095  0.61060530  0.87377467    -0.01610
Br1854     Br  0.91059085  0.54537752  0.84776235    -0.01680
Br1855     Br  0.95026810  0.57971443  0.55966130    -0.01640
Br1856     Br  0.92474306  0.51562513  0.52958743    -0.01620
C1857       C  0.95826126  0.57231468  0.74425569    -0.02750
C1858       C  0.97457930  0.58770683  0.78153757     0.06930
C1859       C  0.98189726  0.57440879  0.81419333    -0.02860
C1860       C  0.97079435  0.54612350  0.81173204    -0.02870
C1861       C  0.94935126  0.53047490  0.78104991     0.07060
C1862       C  0.94424479  0.54384403  0.74578021    -0.03060
Br1863     Br  0.91963736  0.52301854  0.69756718    -0.01610
Br1864     Br  0.95835641  0.58941119  0.68750833    -0.01680
Br1865     Br  0.98650914  0.52996823  0.84919247    -0.01640
Br1866     Br  0.00657045  0.59419792  0.86320064    -0.01620
C1867       C  0.83934512  0.50734266  0.82801403    -0.02750
C1868       C  0.83187203  0.48631610  0.86041802     0.06930
C1869       C  0.81281624  0.48258521  0.89464419    -0.02860
C1870       C  0.80314142  0.50086401  0.89819143    -0.02870
C1871       C  0.81378769  0.52389155  0.86965448     0.07060
C1872       C  0.83250098  0.52727848  0.83557256    -0.03060
Br1873     Br  0.85228723  0.56109030  0.80346827    -0.01610
Br1874     Br  0.85813787  0.50946098  0.77181072    -0.01680
Br1875     Br  0.77495119  0.49408793  0.94123701    -0.01640
Br1876     Br  0.79809326  0.45123130  0.93410496    -0.01620
C1877       C  0.81085302  0.35656763  0.89436431    -0.02750
C1878       C  0.82483599  0.37175698  0.85554352     0.06930
C1879       C  0.82712192  0.35803539  0.81734401    -0.02860
C1880       C  0.82223585  0.33147753  0.82213405    -0.02870
C1881       C  0.81195978  0.31708419  0.86411920     0.07060
C1882       C  0.80465023  0.32951136  0.89915003    -0.03060
Br1883     Br  0.78665498  0.31101504  0.95511666    -0.01610
Br1884     Br  0.79830114  0.37235935  0.93961810    -0.01680
Br1885     Br  0.83129887  0.31674969  0.76978839    -0.01640
Br1886     Br  0.83565479  0.37460148  0.75709602    -0.01620
C1887       C  0.67317622  0.92727531  0.51587410    -0.02750
C1888       C  0.65686571  0.93495168  0.49106893     0.06930
C1889       C  0.63108084  0.91393169  0.47667812    -0.02860
C1890       C  0.62112353  0.88680395  0.49144306    -0.02870
C1891       C  0.63484330  0.88104390  0.52572507     0.07060
C1892       C  0.66196679  0.90095745  0.53449736    -0.03060
Br1893     Br  0.68484978  0.89159058  0.56886761    -0.01610
Br1894     Br  0.71153397  0.95208216  0.52250332    -0.01680
Br1895     Br  0.59071467  0.85767944  0.46065639    -0.01640
Br1896     Br  0.60817351  0.92159983  0.43907194    -0.01620
C1897       C  0.73277345  0.12471243  0.02669791    -0.02750
C1898       C  0.74145926  0.10614586  0.01546942     0.06930
C1899       C  0.76636217  0.11600541  0.99279361    -0.02860
C1900       C  0.77935520  0.14210178  0.97375136    -0.02870
C1901       C  0.76741467  0.15838871  0.97657625     0.07060
C1902       C  0.74566892  0.15080809  0.00677632    -0.03060
Br1903     Br  0.73264610  0.17544463  0.01902769    -0.01610
Br1904     Br  0.70272404  0.11486689  0.06728737    -0.01680
Br1905     Br  0.81441185  0.15604603  0.94620961    -0.01640
Br1906     Br  0.78336786  0.09427988  0.98896569    -0.01620
C1907       C  0.62955575  0.88416711  0.76674978    -0.02750
C1908       C  0.61978149  0.87729626  0.72185787     0.06930
C1909       C  0.62376164  0.89769015  0.69097007    -0.02860
C1910       C  0.64008228  0.92493052  0.70259197    -0.02870
C1911       C  0.64959027  0.93207953  0.74749430     0.07060
C1912       C  0.64380010  0.91163152  0.77999996    -0.03060
Br1913     Br  0.65441453  0.92135547  0.84259650    -0.01610
Br1914     Br  0.62092581  0.85597770  0.81074071    -0.01680
Br1915     Br  0.64713439  0.95242150  0.65778694    -0.01640
Br1916     Br  0.60361227  0.88812188  0.63522462    -0.01620
C1917       C  0.72947958  0.12605258  0.72968868    -0.02750
C1918       C  0.73282955  0.10499244  0.74795938     0.06930
C1919       C  0.75500793  0.11176934  0.77685116    -0.02860
C1920       C  0.77209586  0.13877772  0.79015334    -0.02870
C1921       C  0.76617794  0.15922623  0.77728678     0.07060
C1922       C  0.74582351  0.15294647  0.74463340    -0.03060
Br1923     Br  0.74095825  0.18117195  0.71803124    -0.01610
Br1924     Br  0.70226552  0.11841537  0.68435276    -0.01680
Br1925     Br  0.80332482  0.14638364  0.82649492    -0.01640
Br1926     Br  0.76145862  0.08424376  0.80231470    -0.01620
C1927       C  0.63761264  0.08644752  0.80408343    -0.02750
C1928       C  0.62444026  0.05903621  0.81733607     0.06930
C1929       C  0.59653253  0.04560810  0.82496774    -0.02860
C1930       C  0.58268911  0.06008203  0.82423157    -0.02870
C1931       C  0.59563299  0.08737969  0.80752539     0.07060
C1932       C  0.62285753  0.09930389  0.79357131    -0.03060
Br1933     Br  0.64015923  0.13234712  0.75778876    -0.01610
Br1934     Br  0.67613642  0.10619565  0.79961920    -0.01680
Br1935     Br  0.54606798  0.04060554  0.84593248    -0.01640
Br1936     Br  0.57650760  0.00642755  0.82909159    -0.01620
C1937       C  0.64255855  0.09718286  0.97171089    -0.02750
C1938       C  0.62952298  0.06886262  0.96568925     0.06930
C1939       C  0.60107913  0.05414732  0.96100923    -0.02860
C1940       C  0.58634914  0.06744634  0.96608396    -0.02870
C1941       C  0.59960413  0.09580153  0.97024545     0.07060
C1942       C  0.62756459  0.11031441  0.97721331    -0.03060
Br1943     Br  0.64527452  0.14823054  0.99261984    -0.01610
Br1944     Br  0.68051847  0.11853250  0.96050104    -0.01680
Br1945     Br  0.54739700  0.04712769  0.96597853    -0.01640
Br1946     Br  0.58131376  0.01616636  0.94512748    -0.01620
C1947       C  0.67486612  0.22329850  0.86890342    -0.02750
C1948       C  0.65714064  0.19506569  0.87181076     0.06930
C1949       C  0.66796796  0.17779648  0.87387050    -0.02860
C1950       C  0.69591745  0.18831559  0.87396856    -0.02870
C1951       C  0.71357644  0.21635923  0.87420444     0.07060
C1952       C  0.70314958  0.23398919  0.87029453    -0.03060
Br1953     Br  0.72752642  0.27255097  0.86765770    -0.01610
Br1954     Br  0.66035505  0.24708757  0.86471631    -0.01680
Br1955     Br  0.71051984  0.16447357  0.87071557    -0.01640
Br1956     Br  0.64458037  0.13946635  0.87666939    -0.01620
C1957       C  0.87711065  0.26147657  0.73934717    -0.02750
C1958       C  0.87441055  0.26208813  0.78737593     0.06930
C1959       C  0.89756523  0.27121578  0.81453134    -0.02860
C1960       C  0.92114271  0.27412188  0.79613631    -0.02870
C1961       C  0.92517979  0.27666573  0.74846885     0.07060
C1962       C  0.90275996  0.26968170  0.71998006    -0.03060
Br1963     Br  0.90645537  0.26796461  0.65493851    -0.01610
Br1964     Br  0.84663973  0.25052820  0.69950868    -0.01680
Br1965     Br  0.94547419  0.27124603  0.83824804    -0.01640
Br1966     Br  0.89891008  0.28351475  0.87613275    -0.01620
C1967       C  0.10873870  0.40569205  0.74785927    -0.02750
C1968       C  0.09269796  0.37780420  0.75873137     0.06930
C1969       C  0.10478661  0.36160229  0.75546209    -0.02860
C1970       C  0.13121771  0.37242665  0.73768255    -0.02870
C1971       C  0.14597392  0.39960551  0.72264309     0.07060
C1972       C  0.13492522  0.41636926  0.72928690    -0.03060
Br1973     Br  0.15466021  0.45351398  0.70874668    -0.01610
Br1974     Br  0.09509142  0.42966656  0.75529083    -0.01680
Br1975     Br  0.14710780  0.34983200  0.73291930    -0.01640
Br1976     Br  0.08486396  0.32429068  0.77514875    -0.01620
C1977       C  0.92416062  0.40217663  0.75461320    -0.02750
C1978       C  0.91680517  0.40452240  0.79946352     0.06930
C1979       C  0.91599761  0.38650751  0.83330981    -0.02860
C1980       C  0.92956474  0.37221951  0.82617254    -0.02870
C1981       C  0.94040228  0.37289870  0.78306949     0.07060
C1982       C  0.93464140  0.38508553  0.74617510    -0.03060
Br1983     Br  0.94144347  0.37888531  0.68437142    -0.01610
Br1984     Br  0.92177028  0.42326177  0.70528420    -0.01680
Br1985     Br  0.93377686  0.35234665  0.87522798    -0.01640
Br1986     Br  0.89452348  0.37975792  0.88750294    -0.01620
C1987       C  0.90351482  0.29263999  0.02848307    -0.02750
C1988       C  0.92246516  0.28542803  0.01321719     0.06930
C1989       C  0.91271774  0.26109733  0.98871536    -0.02860
C1990       C  0.88643451  0.24787872  0.97067930    -0.02870
C1991       C  0.86870381  0.25808915  0.97915898     0.07060
C1992       C  0.87698013  0.27947153  0.01082244    -0.03060
Br1993     Br  0.85210369  0.29068223  0.03139949    -0.01610
Br1994     Br  0.91251098  0.31877291  0.57623891    -0.01680
Br1995     Br  0.87746483  0.21792886  0.92974027    -0.01640
Br1996     Br  0.93493995  0.24471215  0.98189193    -0.01620
C1997       C  0.09833654  0.36669410  0.54088323    -0.02750
C1998       C  0.09242639  0.37128774  0.49597381     0.06930
C1999       C  0.11448805  0.38816814  0.96681751    -0.02860
C2000       C  0.14128869  0.40113937  0.48399875    -0.02870
C2001       C  0.14636087  0.39454519  0.52794775     0.07060
C2002       C  0.12455572  0.37450754  0.55333179    -0.03060
Br2003     Br  0.12875066  0.35477282  0.60323084    -0.01610
Br2004     Br  0.07278400  0.35458360  0.59054720    -0.01680
Br2005     Br  0.17126342  0.42529207  0.94576576    -0.01640
Br2006     Br  0.10875047  0.39326693  0.90359989    -0.01620
C2007       C  0.96991152  0.41883357  0.92873251    -0.02750
C2008       C  0.96380917  0.40064003  0.96537163     0.06930
C2009       C  0.94519708  0.39941434  0.99894508    -0.02860
C2010       C  0.92972232  0.41189501  0.99119382    -0.02870
C2011       C  0.93705212  0.43096312  0.95588568     0.07060
C2012       C  0.95959390  0.43644610  0.92818983    -0.03060
Br2013     Br  0.97917125  0.46915833  0.89249216    -0.01610
Br2014     Br  0.99030018  0.41890021  0.87652286    -0.01680
Br2015     Br  0.90033028  0.40491339  0.53170247    -0.01640
Br2016     Br  0.94419409  0.38601136  0.55942611    -0.01620
C2017       C  0.10099855  0.63288256  0.52227749    -0.02750
C2018       C  0.08748620  0.60490803  0.52988141     0.06930
C2019       C  0.05925714  0.58982760  0.52532576    -0.02860
C2020       C  0.04426192  0.60301444  0.52137450    -0.02870
C2021       C  0.05736957  0.63160408  0.51954744     0.07060
C2022       C  0.08608297  0.64593646  0.51411256    -0.03060
Br2023     Br  0.10590428  0.68225856  0.49049576    -0.01610
Br2024     Br  0.13991977  0.65326495  0.52444447    -0.01680
Br2025     Br  0.00616221  0.58117804  0.51274506    -0.01640
Br2026     Br  0.04136440  0.55068567  0.52453253    -0.01620
C2027       C  0.04964266  0.61519041  0.68164498    -0.02750
C2028       C  0.05996724  0.63570602  0.71506427     0.06930
C2029       C  0.07977470  0.63720426  0.74588943    -0.02860
C2030       C  0.08939696  0.61896657  0.74203943    -0.02870
C2031       C  0.07866906  0.59840114  0.70873894     0.07060
C2032       C  0.05696626  0.59527789  0.68144475    -0.03060
Br2033     Br  0.03520134  0.56319056  0.64537771    -0.01610
Br2034     Br  0.02661685  0.61485201  0.63326140    -0.01680
Br2035     Br  0.11647215  0.62142562  0.78414350    -0.01640
Br2036     Br  0.09404498  0.66343957  0.79448575    -0.01620
C2037       C  0.04584816  0.47719699  0.67453174    -0.02750
C2038       C  0.06879508  0.49309442  0.70246662     0.06930
C2039       C  0.07098871  0.48237273  0.74416220    -0.02860
C2040       C  0.05255200  0.45507876  0.75421671    -0.02870
C2041       C  0.03486456  0.43760998  0.71985665     0.07060
C2042       C  0.03051407  0.44913825  0.68085438    -0.03060
Br2043     Br  0.00558336  0.42728654  0.63381157    -0.01610
Br2044     Br  0.03429114  0.49347991  0.62832088    -0.01680
Br2045     Br  0.05123569  0.44236376  0.81571879    -0.01640
Br2046     Br  0.09936751  0.50407786  0.78670378    -0.01620
C2047       C  0.09669272  0.48230820  0.57195702    -0.02750
C2048       C  0.09665156  0.50063338  0.53933363     0.06930
C2049       C  0.08114794  0.49063790  0.49985740    -0.02860
C2050       C  0.06465596  0.46267633  0.49421745    -0.02870
C2051       C  0.06112360  0.44463973  0.53010490     0.07060
C2052       C  0.07777910  0.45442579  0.56859244    -0.03060
Br2053     Br  0.07534118  0.42944990  0.61536432    -0.01610
Br2054     Br  0.12333328  0.49447387  0.61943682    -0.01680
Br2055     Br  0.04890556  0.44956489  0.93577575    -0.01640
Br2056     Br  0.08358712  0.51547801  0.95269489    -0.01620
C2057       C  0.20903062  0.52251945  0.66994282    -0.02750
C2058       C  0.20888582  0.50976886  0.62823371     0.06930
C2059       C  0.20167315  0.51841233  0.58788352    -0.02860
C2060       C  0.19369970  0.53816009  0.58973101    -0.02870
C2061       C  0.19018775  0.54785389  0.63224350     0.07060
C2062       C  0.19889269  0.54051705  0.67210122    -0.03060
Br2063     Br  0.19828655  0.55620833  0.73013740    -0.01610
Br2064     Br  0.22454065  0.51701288  0.72462392    -0.01680
Br2065     Br  0.18725079  0.55111379  0.53292075    -0.01640
Br2066     Br  0.20060910  0.50229768  0.52931672    -0.01620
C2067       C  0.37093651  0.28438094  0.79304563    -0.02750
C2068       C  0.36029262  0.28157487  0.74859415     0.06930
C2069       C  0.36446748  0.26541862  0.71695223    -0.02860
C2070       C  0.37916095  0.25261163  0.73000457    -0.02870
C2071       C  0.39174662  0.25793172  0.77312357     0.07060
C2072       C  0.38881961  0.27525316  0.80325296    -0.03060
Br2073     Br  0.40945159  0.28672808  0.85900255    -0.01610
Br2074     Br  0.35827293  0.29646408  0.84313537    -0.01680
Br2075     Br  0.38237920  0.22807474  0.68920180    -0.01640
Br2076     Br  0.34700461  0.25789881  0.65848846    -0.01620
C2077       C  0.35145000  0.23722189  0.95887260    -0.02750
C2078       C  0.37904799  0.24653202  0.96739755     0.06930
C2079       C  0.39198877  0.26556968  0.00295877    -0.02860
C2080       C  0.37889636  0.27807395  0.02416070    -0.02870
C2081       C  0.35317144  0.27243279  0.00882834     0.07060
C2082       C  0.33855668  0.24982281  0.97980697    -0.03060
Br2083     Br  0.30018773  0.23459352  0.97013307    -0.01610
Br2084     Br  0.33034980  0.20638690  0.91964928    -0.01680
Br2085     Br  0.39643221  0.30229422  0.57484922    -0.01640
Br2086     Br  0.42814924  0.27597322  0.52208303    -0.01620
C2087       C  0.52475584  0.35535530  0.83522042    -0.02750
C2088       C  0.53765921  0.36927929  0.87633137     0.06930
C2089       C  0.53187819  0.35333307  0.91668335    -0.02860
C2090       C  0.51229602  0.32518066  0.91647420    -0.02870
C2091       C  0.49755252  0.31237303  0.87647654     0.07060
C2092       C  0.50396329  0.32788899  0.83605298    -0.03060
Br2093     Br  0.48255600  0.31237268  0.78171177    -0.01610
Br2094     Br  0.53553504  0.37254161  0.77570214    -0.01680
Br2095     Br  0.50653507  0.30392677  0.97110689    -0.01640
Br2096     Br  0.55122769  0.36898231  0.97260515    -0.01620
C2097       C  0.51746648  0.21524085  0.91167220    -0.02750
C2098       C  0.50614186  0.21764408  0.87004358     0.06930
C2099       C  0.51901477  0.21740337  0.82882480    -0.02860
C2100       C  0.53949961  0.21056424  0.82889633    -0.02870
C2101       C  0.54692502  0.20286765  0.86980108     0.07060
C2102       C  0.53726468  0.20740472  0.91159393    -0.03060
Br2103     Br  0.54950141  0.20167823  0.96984957    -0.01610
Br2104     Br  0.50668442  0.22276569  0.96987382    -0.01680
Br2105     Br  0.55875740  0.21368788  0.77291635    -0.01640
Br2106     Br  0.51057133  0.22868269  0.77199570    -0.01620
C2107       C  0.13115778  0.78614115  0.70869898    -0.02750
C2108       C  0.14994836  0.77835056  0.72221548     0.06930
C2109       C  0.14432680  0.76205751  0.76157040    -0.02860
C2110       C  0.11824314  0.74936984  0.78108122    -0.02870
C2111       C  0.09754244  0.75243072  0.76043949     0.07060
C2112       C  0.10513588  0.77332278  0.72776662    -0.03060
Br2113     Br  0.08072232  0.78575259  0.70992278    -0.01610
Br2114     Br  0.14108533  0.81535033  0.66522816    -0.01680
Br2115     Br  0.11207243  0.72897057  0.83692542    -0.01640
Br2116     Br  0.17177371  0.75656128  0.78899906    -0.01620
C2117       C  0.13036394  0.74332055  0.55133132    -0.02750
C2118       C  0.15022090  0.76523132  0.52628610     0.06930
C2119       C  0.14301386  0.77389733  0.48634170    -0.02860
C2120       C  0.11580765  0.76045514  0.47175416    -0.02870
C2121       C  0.09580183  0.73889794  0.49789734     0.07060
C2122       C  0.10330121  0.73112007  0.53857831    -0.03060
Br2123     Br  0.07708812  0.70339935  0.57803715    -0.01610
Br2124     Br  0.13997056  0.73035022  0.60465819    -0.01680
Br2125     Br  0.10549588  0.77329181  0.91914742    -0.01640
Br2126     Br  0.17044561  0.80406135  0.45200265    -0.01620
C2127       C  0.16947187  0.67045071  0.65561039    -0.02750
C2128       C  0.18520385  0.65938946  0.64119182     0.06930
C2129       C  0.21170468  0.67708526  0.62582730    -0.02860
C2130       C  0.22180626  0.70540681  0.62404649    -0.02870
C2131       C  0.20644121  0.71639485  0.64234933     0.07060
C2132       C  0.18103731  0.69838144  0.66191709    -0.03060
Br2133     Br  0.16098789  0.71059879  0.69750056    -0.01610
Br2134     Br  0.13090323  0.64891518  0.65502976    -0.01680
Br2135     Br  0.25674246  0.72867012  0.59702406    -0.01640
Br2136     Br  0.23311982  0.66215091  0.60396672    -0.01620
C2137       C  0.34812953  0.10748740  0.74967778    -0.02750
C2138       C  0.36392250  0.09805934  0.72821177     0.06930
C2139       C  0.39064848  0.11764071  0.71511203    -0.02860
C2140       C  0.40313185  0.14424793  0.73353098    -0.02870
C2141       C  0.38857999  0.15156838  0.76350494     0.07060
C2142       C  0.36037700  0.13395681  0.76733461    -0.03060
Br2143     Br  0.33809287  0.14617842  0.79620408    -0.01610
Br2144     Br  0.30933091  0.08456935  0.75370910    -0.01680
Br2145     Br  0.44061675  0.16958305  0.72063140    -0.01640
Br2146     Br  0.41091548  0.10827526  0.67398940    -0.01620
C2147       C  0.25401370  0.92013178  0.73799343    -0.02750
C2148       C  0.27722593  0.92873334  0.76515006     0.06930
C2149       C  0.28519866  0.90961859  0.77577582    -0.02860
C2150       C  0.27201735  0.88359846  0.75552926    -0.02870
C2151       C  0.25168742  0.87682921  0.72221854     0.07060
C2152       C  0.24254354  0.89541240  0.71434021    -0.03060
Br2153     Br  0.21607627  0.88946213  0.66813667    -0.01610
Br2154     Br  0.23706636  0.94200729  0.73378814    -0.01680
Br2155     Br  0.28192105  0.85742142  0.77497262    -0.01640
Br2156     Br  0.31434629  0.91843852  0.81729854    -0.01620
C2157       C  0.47776717  0.06574192  0.79810484    -0.02750
C2158       C  0.49157719  0.09398859  0.79223159     0.06930
C2159       C  0.47661552  0.10707134  0.78684331    -0.02860
C2160       C  0.44820591  0.09175622  0.78842353    -0.02870
C2161       C  0.43488948  0.06358272  0.79657061     0.07060
C2162       C  0.45027127  0.05169925  0.80708004    -0.03060
Br2163     Br  0.43637921  0.02086329  0.84684005    -0.01610
Br2164     Br  0.49656809  0.04611581  0.79709811    -0.01680
Br2165     Br  0.42785895  0.10980614  0.79098301    -0.01640
Br2166     Br  0.49501379  0.14567428  0.77838673    -0.01620
C2167       C  0.40719514  0.14174639  0.99187857    -0.02750
C2168       C  0.39108246  0.15212604  0.97482274     0.06930
C2169       C  0.36285125  0.13714564  0.98443958    -0.02860
C2170       C  0.35068742  0.11031137  0.00094803    -0.02870
C2171       C  0.36665413  0.09907925  0.01295301     0.07060
C2172       C  0.39503330  0.11625610  0.01381460    -0.03060
Br2173     Br  0.41787616  0.10608512  0.04621885    -0.01610
Br2174     Br  0.44586417  0.16078531  0.98409474    -0.01680
Br2175     Br  0.31210164  0.08936703  0.51037805    -0.01640
Br2176     Br  0.34027749  0.15311219  0.97861645    -0.01620
C2177       C  0.25273303  0.91669169  0.50842683    -0.02750
C2178       C  0.27814320  0.92660417  0.48710932     0.06930
C2179       C  0.28549460  0.90730664  0.47338826    -0.02860
C2180       C  0.27035180  0.88005272  0.48804580    -0.02870
C2181       C  0.24865233  0.87224758  0.51825332     0.07060
C2182       C  0.23798335  0.88956452  0.52336092    -0.03060
Br2183     Br  0.20187706  0.87511844  0.54718855    -0.01610
Br2184     Br  0.23721119  0.93953573  0.51583872    -0.01680
Br2185     Br  0.27850703  0.85339034  0.46485963    -0.01640
Br2186     Br  0.31655243  0.91716680  0.93622989    -0.01620
C2187       C  0.45588599  0.05642225  0.97776715    -0.02750
C2188       C  0.43786160  0.06343273  0.95831555     0.06930
C2189       C  0.44833204  0.08959316  0.93972714    -0.02860
C2190       C  0.47652739  0.10784157  0.93896158    -0.02870
C2191       C  0.49417863  0.10108171  0.96149273     0.07060
C2192       C  0.48302351  0.07595587  0.98402041    -0.03060
Br2193     Br  0.50485119  0.06824463  0.02465158    -0.01610
Br2194     Br  0.44528872  0.01972880  0.99049591    -0.01680
Br2195     Br  0.49030783  0.14084940  0.90476065    -0.01640
Br2196     Br  0.42390949  0.09921441  0.91203957    -0.01620
C2197       C  0.47350947  0.81207206  0.63662573    -0.02750
C2198       C  0.47695653  0.83284204  0.60621974     0.06930
C2199       C  0.49760843  0.84150131  0.57267184    -0.02860
C2200       C  0.51841002  0.83556066  0.57792760    -0.02870
C2201       C  0.51601394  0.81576428  0.60966312     0.07060
C2202       C  0.49215508  0.80268073  0.63678175    -0.03060
Br2203     Br  0.48366407  0.77101065  0.67278740    -0.01610
Br2204     Br  0.44177169  0.79440408  0.67492530    -0.01680
Br2205     Br  0.55157158  0.85835000  0.54549486    -0.01640
Br2206     Br  0.49883997  0.86183032  0.51853593    -0.01620
C2207       C  0.57504784  0.94787776  0.55980365    -0.02750
C2208       C  0.58553546  0.97512079  0.54781669     0.06930
C2209       C  0.56886774  0.98654269  0.54931115    -0.02860
C2210       C  0.54107607  0.96932494  0.54889834    -0.02870
C2211       C  0.53041925  0.94202513  0.56095268     0.07060
C2212       C  0.54789838  0.93239905  0.57193375    -0.03060
Br2213     Br  0.53659893  0.90209748  0.61239442    -0.01610
Br2214     Br  0.59839992  0.93314516  0.56535749    -0.01680
Br2215     Br  0.51798261  0.98389487  0.03585336    -0.01640
Br2216     Br  0.58285327  0.02456907  0.06104113    -0.01620
C2217       C  0.56360739  0.94120666  0.71750093    -0.02750
C2218       C  0.57688826  0.96908275  0.70634872     0.06930
C2219       C  0.56113426  0.98124933  0.69982580    -0.02860
C2220       C  0.53266736  0.96585469  0.70372606    -0.02870
C2221       C  0.51919654  0.93737125  0.71303123     0.07060
C2222       C  0.53526440  0.92556296  0.72132129    -0.03060
Br2223     Br  0.51913823  0.88828066  0.74169669    -0.01610
Br2224     Br  0.58420307  0.92408639  0.72983528    -0.01680
Br2225     Br  0.51339788  0.98541280  0.69886158    -0.01640
Br2226     Br  0.57910901  0.01995141  0.68967971    -0.01620
C2227       C  0.38291654  0.92429324  0.67447615    -0.02750
C2228       C  0.39991644  0.92082834  0.70524722     0.06930
C2229       C  0.40308398  0.93121345  0.74952995    -0.02860
C2230       C  0.39147391  0.94700470  0.76102004    -0.02870
C2231       C  0.37880939  0.95455639  0.72742323     0.07060
C2232       C  0.37241447  0.94109984  0.68541875    -0.03060
Br2233     Br  0.34757358  0.94400101  0.64472792    -0.01610
Br2234     Br  0.37487008  0.90677091  0.61641334    -0.01680
Br2235     Br  0.39194116  0.95687376  0.82323574    -0.01640
Br2236     Br  0.42552358  0.92633973  0.79294234    -0.01620
C2237       C  0.41180681  0.94124014  0.50580837    -0.02750
C2238       C  0.42781154  0.94710855  0.54479653     0.06930
C2239       C  0.42984507  0.96705016  0.57573428    -0.02860
C2240       C  0.41150405  0.97634616  0.57301709    -0.02870
C2241       C  0.39390655  0.96907841  0.53524005     0.07060
C2242       C  0.39613618  0.95343411  0.49984660    -0.03060
Br2243     Br  0.38404290  0.95423629  0.93919136    -0.01610
Br2244     Br  0.41498844  0.92016053  0.95728503    -0.01680
Br2245     Br  0.41274161  0.00090760  0.61963018    -0.01640
Br2246     Br  0.45900507  0.98416113  0.61933602    -0.01620
C2247       C  0.35108702  0.84158116  0.57869116    -0.02750
C2248       C  0.36267439  0.83090898  0.60849350     0.06930
C2249       C  0.34592581  0.81099506  0.64055014    -0.02860
C2250       C  0.31854812  0.80363690  0.64524423    -0.02870
C2251       C  0.30818723  0.81739120  0.61943169     0.07060
C2252       C  0.32523610  0.83721499  0.58752288    -0.03060
Br2253     Br  0.31550341  0.86211051  0.56114797    -0.01610
Br2254     Br  0.36960993  0.86195182  0.52486536    -0.01680
Br2255     Br  0.29611545  0.77505501  0.68758464    -0.01640
Br2256     Br  0.36022987  0.79243090  0.67546166    -0.01620
loop_ 
_geom_bond_atom_site_label_1 
_geom_bond_atom_site_label_2 
_geom_bond_distance 
_geom_bond_site_symmetry_2 
_ccdc_geom_bond_type 
O1          Cr19   2.033       .  S
O1            C9   1.279       .  A
O2          Cr19   1.958       .  S
O2            C3   1.255       .  A
C3            O4   1.272       .  A
C3         C1070   1.509       .  S
O4          Cr20   2.026       .  S
O5          Cr20   2.022       .  S
O5            C6   1.256       .  A
C6            O7   1.240       .  A
C6         C1093   1.511       .  S
O7          Cr21   1.970       .  S
O8          Cr21   1.923       .  S
O8            C9   1.256       .  A
C9         C1083   1.438       .  S
O10         Cr19   1.996       .  S
O10          C18   1.252       .  A
O11         Cr19   1.992       .  S
O11          C12   1.264       .  A
C12          O13   1.263       .  A
C12        C1120   1.487       .  S
O13         Cr20   1.979       .  S
O14         Cr20   2.072       .  S
O14          C15   1.288       .  A
C15          O16   1.255       .  A
C15        C1100   1.480       .  S
O16         Cr21   1.928       .  S
O17         Cr21   1.964       .  S
O17          C18   1.237       .  A
C18        C1110   1.468       .  S
Cr19         O22   1.767       .  S
Cr20         O22   1.766       .  S
Cr21         O22   1.769       .  S
O23       Cr1169   1.992   1_565  S
O23          C31   1.266   1_554  A
O24       Cr1169   2.104       .  S
O24          C25   1.283       .  A
C25          O26   1.255       .  A
C25          C56   1.498       .  S
O26         Cr42   1.933       .  S
O27         Cr42   2.002       .  S
O27          C28   1.263   1_545  A
C28          O29   1.255       .  A
C28        C1113   1.479       .  S
O29       Cr1171   1.970   1_554  S
O30         Cr43   2.019       .  S
O30        C1159   1.267       .  A
C31        O1158   1.267       .  A
C31        C1050   1.506       .  S
O32         Cr41   2.105       .  S
O32          C40   1.281       .  A
O33         Cr41   1.996       .  S
O33          C34   1.266       .  A
C34        O1163   1.262       .  A
C34        C1043   1.492       .  S
O35         Cr42   2.003       .  S
O35        C1162   1.262       .  A
O36       Cr1170   1.962       .  S
O36          C37   1.254       .  A
C37          O38   1.272       .  A
C37        C1060   1.485       .  S
O38         Cr43   2.051   1_545  S
O39         Cr43   1.928   1_545  S
O39          C40   1.256       .  A
C40          C53   1.501       .  S
Cr41       O1151   1.992   1_545  S
Cr41       O1152   2.104       .  S
Cr41         O44   1.776       .  S
Cr42       O1164   1.962   1_554  S
Cr42       O1172   1.743   1_554  S
Cr43       O1157   1.970       .  S
Cr43         O44   1.747   1_565  S
O44       Cr1170   1.743       .  S
O45         Cr63   2.133       .  S
O45          C53   1.277       .  A
O46         Cr63   1.966       .  S
O46          C47   1.267       .  A
C47          O48   1.282       .  A
C47        C1010   1.509       .  S
O48         Cr64   2.060       .  S
O49         Cr64   1.961       .  S
O49          C50   1.253       .  A
C50          O51   1.265       .  A
C50        C1033   1.476       .  S
O51         Cr65   2.004   1_545  S
O52         Cr65   1.937   1_545  S
O52          C53   1.233       .  A
O54         Cr63   1.949   1_565  S
O54          C62   1.261       .  A
O55         Cr63   2.111       .  S
O55          C56   1.279       .  A
C56          O57   1.246   1_545  A
O57         Cr64   1.943   1_565  S
O58         Cr64   2.048   1_565  S
O58          C59   1.277       .  A
C59          O60   1.250       .  A
C59        C1103   1.486       .  S
O60         Cr65   1.944       .  S
O61         Cr65   2.054       .  S
O61          C62   1.280       .  A
C62        C1020   1.502       .  S
Cr63         O66   1.783       .  S
Cr64         O66   1.727       .  S
Cr65         O66   1.729   1_565  S
O67         Cr85   2.004       .  S
O67          C75   1.257       .  A
O68         Cr85   1.951       .  S
O68          C69   1.256       .  A
C69          O70   1.274       .  A
C69         C980   1.488       .  S
O70         Cr86   2.043       .  S
O71         Cr86   1.979       .  S
O71          C72   1.264       .  A
C72          O73   1.271       .  A
C72        C1003   1.498       .  S
O73         Cr87   2.023       .  S
O74         Cr87   1.980       .  S
O74          C75   1.258       .  A
C75         C990   1.473       .  S
O76         Cr85   1.949       .  S
O76          C84   1.259       .  A
O77         Cr85   2.007       .  S
O77          C78   1.259       .  A
C78          O79   1.260       .  A
C78        C1023   1.504       .  S
O79         Cr86   1.999       .  S
O80         Cr86   2.008       .  S
O80          C81   1.265       .  A
C81          O82   1.261       .  A
C81        C1123   1.489       .  S
O82         Cr87   1.958       .  S
O83         Cr87   2.053       .  S
O83          C84   1.278       .  A
C84        C1053   1.490       .  S
Cr85         O88   1.761       .  S
Cr86         O88   1.774       .  S
Cr87         O88   1.770       .  S
O89        Cr107   1.970       .  S
O89          C97   1.260       .  A
O90        Cr107   2.012       .  S
O90          C91   1.264       .  A
C91          O92   1.261       .  A
C91         C943   1.482       .  S
O92        Cr108   1.992       .  S
O93        Cr108   2.030       .  S
O93          C94   1.272       .  A
C94          O95   1.265       .  A
C94         C963   1.509       .  S
O95        Cr109   1.999       .  S
O96        Cr109   2.025       .  S
O96          C97   1.267       .  A
C97         C950   1.501       .  S
O98        Cr107   1.993       .  S
O98         C106   1.261       .  A
O99        Cr107   1.964       .  S
O99         C100   1.256       .  A
C100        O101   1.273       .  A
C100       C1013   1.501       .  S
O101       Cr108   2.051       .  S
O102       Cr108   1.993       .  S
O102        C103   1.266       .  A
C103        O104   1.269       .  A
C103        C970   1.512       .  S
O104       Cr109   2.024       .  S
O105       Cr109   1.997       .  S
O105        C106   1.266       .  A
C106       C1040   1.508       .  S
Cr107       O110   1.768       .  S
Cr108       O110   1.776       .  S
Cr109       O110   1.776       .  S
O111       Cr129   2.070       .  S
O111        C119   1.277       .  A
O112       Cr129   1.995       .  S
O112        C113   1.266       .  A
C113        O114   1.270       .  A
C113        C933   1.512       .  S
O114       Cr130   2.026       .  S
O115       Cr130   1.989       .  S
O115        C116   1.250       .  A
C116        O117   1.256       .  A
C116        C920   1.469       .  S
O117       Cr131   1.983       .  S
O118       Cr131   1.910       .  S
O118        C119   1.239       .  A
C119        C910   1.478       .  S
O120       Cr129   1.984       .  S
O120        C128   1.262       .  A
O121       Cr129   2.045       .  S
O121        C122   1.280       .  A
C122        O123   1.258       .  A
C122       C1000   1.484       .  S
O123       Cr130   1.956       .  S
O124       Cr130   2.067       .  S
O124        C125   1.282       .  A
C125        O126   1.250       .  A
C125        C890   1.473       .  S
O126       Cr131   1.923       .  S
O127       Cr131   1.998       .  S
O127        C128   1.255       .  A
C128        C903   1.486       .  S
Cr129       O132   1.761       .  S
Cr130       O132   1.766       .  S
Cr131       O132   1.745       .  S
O133      Cr1279   1.974   1_655  S
O133        C141   1.266       .  A
O134      Cr1279   2.097       .  S
O134        C135   1.276       .  A
C135        O136   1.257       .  A
C135        C166   1.497       .  S
O136       Cr152   1.930       .  S
O137       Cr152   2.059       .  S
O137        C138   1.278   1_455  A
C138        O139   1.252       .  A
C138        C880   1.505       .  S
O139      Cr1281   1.956       .  S
O140       Cr153   2.036       .  S
O140       C1269   1.273       .  A
C141       O1268   1.273       .  A
C141        C860   1.503       .  S
O142       Cr151   2.103   1_554  S
O142        C150   1.278       .  A
O143       Cr151   1.954   1_554  S
O143        C144   1.261   1_554  A
C144       O1273   1.273       .  A
C144        C870   1.500       .  S
O145       Cr152   2.022       .  S
O145       C1272   1.273       .  A
O146      Cr1280   1.944       .  S
O146        C147   1.245   1_556  A
C147        O148   1.269       .  A
C147        C923   1.469       .  S
O148       Cr153   2.042   1_455  S
O149       Cr153   1.931   1_455  S
O149        C150   1.248       .  A
C150        C163   1.489       .  S
Cr151      O1261   1.974   1_455  S
Cr151      O1262   2.097       .  S
Cr151       O154   1.784       .  S
Cr152      O1274   1.944       .  S
Cr152      O1282   1.739       .  S
Cr153      O1267   1.956   1_554  S
Cr153       O154   1.742   1_654  S
O154      Cr1280   1.739       .  S
O155       Cr173   2.106       .  S
O155        C163   1.283       .  A
O156       Cr173   1.968       .  S
O156        C157   1.261       .  A
C157        O158   1.283       .  A
C157        C840   1.507       .  S
O158       Cr174   2.070       .  S
O159       Cr174   1.922       .  S
O159        C160   1.246       .  A
C160        O161   1.273       .  A
C160        C913   1.480       .  S
O161       Cr175   2.050   1_455  S
O162       Cr175   1.915   1_455  S
O162        C163   1.250       .  A
O164       Cr173   1.952   1_655  S
O164        C172   1.257       .  A
O165       Cr173   2.136       .  S
O165        C166   1.286       .  A
C166        O167   1.234   1_455  A
O167       Cr174   1.921   1_655  S
O168       Cr174   2.035   1_655  S
O168        C169   1.270       .  A
C169        O170   1.248       .  A
C169        C853   1.469       .  S
O170       Cr175   1.954       .  S
O171       Cr175   2.016       .  S
O171        C172   1.271       .  A
C172        C833   1.486       .  S
Cr173       O176   1.782       .  S
Cr174       O176   1.720       .  S
Cr175       O176   1.738   1_655  S
O177       Cr195   2.054       .  S
O177        C185   1.278       .  A
O178       Cr195   1.990       .  S
O178        C179   1.265       .  A
C179        O180   1.268       .  A
C179        C973   1.510       .  S
O180       Cr196   2.017       .  S
O181       Cr196   2.020       .  S
O181        C182   1.258       .  A
C182        O183   1.252       .  A
C182       C1063   1.487       .  S
O183       Cr197   1.967       .  S
O184       Cr197   1.929       .  S
O184        C185   1.254       .  A
C185       C1030   1.463       .  S
O186       Cr195   2.024       .  S
O186        C194   1.264       .  A
O187       Cr195   2.028       .  S
O187        C188   1.272       .  A
C188        O189   1.262       .  A
C188        C820   1.487       .  S
O189       Cr196   1.974       .  S
O190       Cr196   2.062       .  S
O190        C191   1.280       .  A
C191        O192   1.256       .  A
C191        C813   1.474       .  S
O192       Cr197   1.928       .  S
O193       Cr197   1.981       .  S
O193        C194   1.247       .  A
C194        C803   1.508       .  S
Cr195       O198   1.765       .  S
Cr196       O198   1.768       .  S
Cr197       O198   1.753       .  S
O199       Cr217   2.007       .  S
O199        C207   1.267       .  A
O200       Cr217   2.067       .  S
O200        C201   1.270       .  A
C201        O202   1.247   1_545  A
C201        C232   1.493       .  S
O202       Cr218   1.978       .  S
O203       Cr218   2.025   1_545  S
O203        C204   1.275       .  A
C204        O205   1.253       .  A
C204        C800   1.469       .  S
O205       Cr219   1.952       .  S
O206       Cr219   1.970       .  S
O206        C207   1.262       .  A
C207        C790   1.489       .  S
O208       Cr217   2.057       .  S
O208        C216   1.273       .  A
O209       Cr217   2.029   1_565  S
O209        C210   1.274       .  A
C210        O211   1.259       .  A
C210        C783   1.465       .  S
O211       Cr218   1.940       .  S
O212       Cr218   1.975       .  S
O212        C213   1.257       .  A
C213        O214   1.277   1_565  A
C213       C1090   1.489       .  S
O214       Cr219   2.035       .  S
O215       Cr219   1.964       .  S
O215        C216   1.253       .  A
C216        C229   1.492       .  S
Cr217       O220   1.789       .  S
Cr218       O220   1.777   1_565  S
Cr219       O220   1.767       .  S
O221       Cr239   2.112       .  S
O221        C229   1.283       .  A
O222       Cr239   1.970   1_565  S
O222        C223   1.261   1_554  A
C223       O1352   1.278       .  A
C223        C760   1.513       .  S
O224       Cr240   2.054   1_565  S
O224       C1351   1.278       .  A
O225      Cr1368   1.959   1_564  S
O225        C226   1.258       .  A
C226        O227   1.254   1_565  A
C226       C1080   1.450       .  S
O227       Cr241   1.967       .  S
O228       Cr241   1.951       .  S
O228        C229   1.244       .  A
O230      Cr1367   1.977       .  S
O230        C238   1.265       .  A
O231      Cr1367   2.108       .  S
O231        C232   1.285       .  A
C232        O233   1.245       .  A
O233       Cr240   1.958       .  S
O234       Cr240   2.012       .  S
O234        C235   1.267       .  A
C235        O236   1.263       .  A
C235        C810   1.492       .  S
O236      Cr1369   1.972       .  S
O237       Cr241   2.012       .  S
O237       C1366   1.265       .  A
C238       O1365   1.265       .  A
C238        C770   1.489       .  S
Cr239      O1358   1.977   1_554  S
Cr239      O1359   2.108   1_554  S
Cr239       O242   1.768       .  S
Cr240      O1353   1.959   1_545  S
Cr240      O1370   1.741       .  S
Cr241      O1364   1.972       .  S
Cr241       O242   1.741       .  S
O242      Cr1368   1.741   1_554  S
O243       Cr261   1.937       .  S
O243        C251   1.260       .  A
O244       Cr261   1.994       .  S
O244        C245   1.254       .  A
C245        O246   1.266       .  A
C245        C863   1.504       .  S
O246       Cr262   2.017       .  S
O247       Cr262   2.006       .  S
O247        C248   1.263       .  A
C248        O249   1.254       .  A
C248        C753   1.502       .  S
O249       Cr263   1.958       .  S
O250       Cr263   2.031       .  S
O250        C251   1.271       .  A
C251        C830   1.487       .  S
O252       Cr261   1.983       .  S
O252        C260   1.250       .  A
O253       Cr261   1.959       .  S
O253        C254   1.262       .  A
C254        O255   1.274       .  A
C254        C773   1.480       .  S
O255       Cr262   2.036       .  S
O256       Cr262   1.984       .  S
O256        C257   1.267       .  A
C257        O258   1.265       .  A
C257        C823   1.478       .  S
O258       Cr263   2.008       .  S
O259       Cr263   1.999       .  S
O259        C260   1.260       .  A
C260        C793   1.491       .  S
Cr261       O264   1.756       .  S
Cr262       O264   1.764       .  S
Cr263       O264   1.767       .  S
O265       Cr283   2.026       .  S
O265        C273   1.281       .  A
O266       Cr283   1.994       .  S
O266        C267   1.265       .  A
C267        O268   1.260       .  A
C267        C740   1.491       .  S
O268       Cr284   1.975       .  S
O269       Cr284   2.017       .  S
O269        C270   1.256       .  A
C270        O271   1.239       .  A
C270        C733   1.489       .  S
O271       Cr285   1.970       .  S
O272       Cr285   1.953       .  S
O272        C273   1.268       .  A
C273        C720   1.465       .  S
O274       Cr283   2.036       .  S
O274        C282   1.257       .  A
O275       Cr283   1.979       .  S
O275        C276   1.262       .  A
C276        O277   1.256       .  A
C276        C750   1.489       .  S
O277       Cr284   1.961       .  S
O278       Cr284   2.030       .  S
O278        C279   1.280       .  A
C279        O280   1.267       .  A
C279        C850   1.476       .  S
O280       Cr285   1.962       .  S
O281       Cr285   1.965       .  S
O281        C282   1.234       .  A
C282        C883   1.492       .  S
Cr283       O286   1.767       .  S
Cr284       O286   1.767       .  S
Cr285       O286   1.766       .  S
O287       Cr305   1.973       .  S
O287        C295   1.261       .  A
O288       Cr305   2.113       .  S
O288        C289   1.282       .  A
C289        O290   1.248       .  A
C289        C320   1.500       .  S
O290       Cr306   1.917   1_455  S
O291       Cr306   2.013   1_455  S
O291        C292   1.266       .  A
C292        O293   1.255       .  A
C292        C900   1.489       .  S
O293       Cr307   1.973       .  S
O294       Cr307   2.010       .  S
O294        C295   1.264       .  A
C295        C983   1.498       .  S
O296       Cr305   2.097       .  S
O296        C304   1.281       .  A
O297       Cr305   1.985   1_655  S
O297        C298   1.263       .  A
C298        O299   1.269       .  A
C298        C710   1.513       .  S
O299       Cr306   2.031       .  S
O300       Cr306   1.957       .  S
O300        C301   1.256       .  A
C301        O302   1.272   1_655  A
C301        C730   1.493       .  S
O302       Cr307   2.044       .  S
O303       Cr307   1.926       .  S
O303        C304   1.260       .  A
C304        C317   1.493       .  S
Cr305       O308   1.771       .  S
Cr306       O308   1.740   1_655  S
Cr307       O308   1.751       .  S
O309       Cr327   2.129       .  S
O309        C317   1.278       .  A
O310       Cr327   1.949   1_655  S
O310        C311   1.259       .  A
C311       O1440   1.284       .  A
C311        C700   1.505       .  S
O312       Cr328   2.048       .  S
O312       C1439   1.284       .  A
O313      Cr1456   1.917       .  S
O313        C314   1.236       .  A
C314        O315   1.269       .  A
C314        C723   1.458       .  S
O315       Cr329   2.029   1_655  S
O316       Cr329   1.925   1_655  S
O316        C317   1.232   1_655  A
O318      Cr1455   1.948       .  S
O318        C326   1.260   1_554  A
O319      Cr1455   2.112       .  S
O319        C320   1.279       .  A
C320        O321   1.250       .  A
O321       Cr328   1.920   1_455  S
O322       Cr328   2.091   1_455  S
O322        C323   1.290       .  A
C323        O324   1.248   1_554  A
C323        C893   1.510       .  S
O324      Cr1457   1.932       .  S
O325       Cr329   2.058       .  S
O325       C1454   1.284       .  A
C326       O1453   1.284       .  A
C326        C993   1.482       .  S
Cr327      O1446   1.948       .  S
Cr327      O1447   2.112       .  S
Cr327       O330   1.800       .  S
Cr328      O1441   1.917       .  S
Cr328      O1458   1.725   1_655  S
Cr329      O1452   1.932       .  S
Cr329       O330   1.730       .  S
O330      Cr1456   1.725   1_455  S
O331       Cr349   1.913       .  S
O331        C339   1.251       .  A
O332       Cr349   1.994       .  S
O332        C333   1.261       .  A
C333        O334   1.255       .  A
C333        C673   1.486       .  S
O334       Cr350   1.994       .  S
O335       Cr350   2.031       .  S
O335        C336   1.271       .  A
C336        O337   1.264       .  A
C336        C693   1.527       .  S
O337       Cr351   1.988       .  S
O338       Cr351   2.077       .  S
O338        C339   1.283       .  A
C339        C680   1.480       .  S
O340       Cr349   1.993       .  S
O340        C348   1.252       .  A
O341       Cr349   1.934       .  S
O341        C342   1.252       .  A
C342        O343   1.281       .  A
C342        C650   1.478       .  S
O343       Cr350   2.057       .  S
O344       Cr350   1.962       .  S
O344        C345   1.256       .  A
C345        O346   1.276       .  A
C345        C960   1.527       .  S
O346       Cr351   2.048       .  S
O347       Cr351   1.999       .  S
O347        C348   1.258       .  A
C348        C660   1.500       .  S
Cr349       O352   1.762       .  S
Cr350       O352   1.763       .  S
Cr351       O352   1.765       .  S
O353       Cr371   1.950       .  S
O353        C361   1.250       .  A
O354       Cr371   2.037       .  S
O354        C355   1.275       .  A
C355        O356   1.265       .  A
C355        C640   1.502       .  S
O356       Cr372   1.966       .  S
O357       Cr372   2.110       .  S
O357        C358   1.275       .  A
C358        O359   1.246       .  A
C358        C386   1.503       .  S
O359       Cr373   1.943       .  S
O360       Cr373   2.031       .  S
O360        C361   1.270       .  A
C361        C630   1.482       .  S
O362       Cr371   2.049       .  S
O362        C370   1.275       .  A
O363       Cr371   1.925       .  S
O363        C364   1.255       .  A
C364        O365   1.276       .  A
C364        C383   1.501       .  S
O365       Cr372   2.106       .  S
O366       Cr372   1.970       .  S
O366        C367   1.264       .  A
C367        O368   1.281       .  A
C367        C940   1.498       .  S
O368       Cr373   2.049       .  S
O369       Cr373   1.951       .  S
O369        C370   1.253       .  A
C370        C653   1.484       .  S
Cr371       O374   1.746       .  S
Cr372       O374   1.795       .  S
Cr373       O374   1.742       .  S
O375       Cr393   2.135       .  S
O375        C383   1.275       .  A
O376       Cr393   1.962       .  S
O376        C377   1.262       .  A
C377       O1506   1.276       .  A
C377        C953   1.505       .  S
O378       Cr394   2.040       .  S
O378       C1505   1.276       .  A
O379      Cr1522   1.971       .  S
O379        C380   1.257       .  A
C380        O381   1.260       .  A
C380        C663   1.500       .  S
O381       Cr395   1.997       .  S
O382       Cr395   1.928       .  S
O382        C383   1.230       .  A
O384      Cr1521   1.955       .  S
O384        C392   1.259   1_554  A
O385      Cr1521   2.113       .  S
O385        C386   1.282       .  A
C386        O387   1.249       .  A
O387       Cr394   1.929       .  S
O388       Cr394   2.021       .  S
O388        C389   1.273       .  A
C389        O390   1.258   1_554  A
C389        C610   1.498       .  S
O390      Cr1523   1.947       .  S
O391       Cr395   2.065       .  S
O391       C1520   1.284       .  A
C392       O1519   1.283       .  A
C392        C620   1.490       .  S
Cr393      O1512   1.956       .  S
Cr393      O1513   2.113       .  S
Cr393       O396   1.799       .  S
Cr394      O1507   1.970   1_554  S
Cr394      O1524   1.736   1_554  S
Cr395      O1518   1.947       .  S
Cr395       O396   1.730       .  S
O396      Cr1522   1.737       .  S
O397       Cr415   1.999       .  S
O397        C405   1.258       .  A
O398       Cr415   1.924       .  S
O398        C399   1.258       .  A
C399        O400   1.278       .  A
C399        C613   1.474       .  S
O400       Cr416   2.051       .  S
O401       Cr416   2.008       .  S
O401        C402   1.269       .  A
C402        O403   1.270       .  A
C402        C593   1.514       .  S
O403       Cr417   2.024       .  S
O404       Cr417   1.982       .  S
O404        C405   1.251       .  A
C405        C633   1.481       .  S
O406       Cr415   1.941       .  S
O406        C414   1.254       .  A
O407       Cr415   1.985       .  S
O407        C408   1.248       .  A
C408        O409   1.265       .  A
C408        C583   1.496       .  S
O409       Cr416   2.019       .  S
O410       Cr416   2.042       .  S
O410        C411   1.274       .  A
C411        O412   1.259       .  A
C411        C603   1.517       .  S
O412       Cr417   1.976       .  S
O413       Cr417   2.037       .  S
O413        C414   1.274       .  A
C414        C570   1.475       .  S
Cr415       O418   1.774       .  S
Cr416       O418   1.769       .  S
Cr417       O418   1.773       .  S
O419      Cr1565   1.959       .  S
O419        C427   1.255       .  A
O420       Cr437   2.020       .  S
O420       C1549   1.266       .  A
C421        O422   1.260       .  A
C421       O1548   1.266       .  A
C421        C560   1.498       .  S
O422      Cr1566   1.968       .  S
O423      Cr1566   2.111       .  S
O423        C424   1.280       .  A
C424        O425   1.248       .  A
C424        C449   1.499       .  S
O425       Cr439   1.914       .  S
O426       Cr439   2.024       .  S
O426        C427   1.269       .  A
C427        C683   1.502       .  S
O428       Cr437   2.016       .  S
O428        C436   1.264       .  A
O429       Cr437   1.913       .  S
O429        C430   1.251       .  A
C430        O431   1.284       .  A
C430        C452   1.496       .  S
O431       Cr438   2.112   1_554  S
O432       Cr438   1.946   1_554  S
O432        C433   1.253   1_554  A
C433       O1562   1.270       .  A
C433        C550   1.506       .  S
O434       Cr439   2.025       .  S
O434       C1561   1.270       .  A
O435      Cr1567   1.970   1_554  S
O435        C436   1.253       .  A
C436        C580   1.506       .  S
Cr437      O1547   1.959   1_554  S
Cr437       O440   1.738   1_554  S
Cr438      O1550   1.968       .  S
Cr438      O1551   2.111       .  S
Cr438       O440   1.775       .  S
Cr439      O1563   1.970       .  S
Cr439      O1568   1.740       .  S
O440      Cr1567   1.740       .  S
O441       Cr459   2.117       .  S
O441        C449   1.276       .  A
O442       Cr459   1.954       .  S
O442        C443   1.264       .  A
C443        O444   1.277       .  A
C443        C540   1.487       .  S
O444       Cr460   2.040       .  S
O445       Cr460   1.958       .  S
O445        C446   1.251       .  A
C446        O447   1.267       .  A
C446        C670   1.481       .  S
O447       Cr461   2.030       .  S
O448       Cr461   1.937       .  S
O448        C449   1.242       .  A
O450       Cr459   1.969       .  S
O450        C458   1.263       .  A
O451       Cr459   2.110       .  S
O451        C452   1.275       .  A
C452        O453   1.245       .  A
O453       Cr460   1.917       .  S
O454       Cr460   2.027       .  S
O454        C455   1.273       .  A
C455        O456   1.254       .  A
C455        C573   1.477       .  S
O456       Cr461   1.953       .  S
O457       Cr461   2.046       .  S
O457        C458   1.280       .  A
C458        C533   1.493       .  S
Cr459       O462   1.803       .  S
Cr460       O462   1.733       .  S
Cr461       O462   1.736       .  S
O463       Cr481   1.969       .  S
O463        C471   1.265       .  A
O464       Cr481   1.992       .  S
O464        C465   1.253       .  A
C465        O466   1.262       .  A
C465        C643   1.500       .  S
O466       Cr482   2.012       .  S
O467       Cr482   2.020       .  S
O467        C468   1.270       .  A
C468        O469   1.265       .  A
C468        C590   1.506       .  S
O469       Cr483   2.000       .  S
O470       Cr483   2.043       .  S
O470        C471   1.276       .  A
C471        C623   1.481       .  S
O472       Cr481   1.985       .  S
O472        C480   1.251       .  A
O473       Cr481   1.976       .  S
O473        C474   1.260       .  A
C474        O475   1.275       .  A
C474        C843   1.493       .  S
O475       Cr482   2.047       .  S
O476       Cr482   1.988       .  S
O476        C477   1.263       .  A
C477        O478   1.270       .  A
C477        C930   1.517       .  S
O478       Cr483   2.025       .  S
O479       Cr483   2.015       .  S
O479        C480   1.264       .  A
C480        C873   1.486       .  S
Cr481       O484   1.773       .  S
Cr482       O484   1.775       .  S
Cr483       O484   1.781       .  S
O485       Cr503   1.948       .  S
O485        C493   1.257       .  A
O486       Cr503   1.993       .  S
O486        C487   1.256       .  A
C487        O488   1.263       .  A
C487        C553   1.489       .  S
O488       Cr504   2.000       .  S
O489       Cr504   2.022       .  S
O489        C490   1.268       .  A
C490        O491   1.265       .  A
C490        C600   1.513       .  S
O491       Cr505   2.001       .  S
O492       Cr505   2.038       .  S
O492        C493   1.269       .  A
C493        C530   1.478       .  S
O494       Cr503   1.991       .  S
O494        C502   1.256       .  A
O495       Cr503   1.967       .  S
O495        C496   1.264       .  A
C496        O497   1.276       .  A
C496        C763   1.511       .  S
O497       Cr504   2.056       .  S
O498       Cr504   1.980       .  S
O498        C499   1.266       .  A
C499        O500   1.269       .  A
C499       C1073   1.511       .  S
O500       Cr505   2.016       .  S
O501       Cr505   1.991       .  S
O501        C502   1.259       .  A
C502        C780   1.468       .  S
Cr503       O506   1.776       .  S
Cr504       O506   1.777       .  S
Cr505       O506   1.786       .  S
O507       Cr525   1.976       .  S
O507        C515   1.268       .  A
O508       Cr525   1.977       .  S
O508        C509   1.245       .  A
C509        O510   1.261       .  A
C509        C563   1.494       .  S
O510       Cr526   2.018       .  S
O511       Cr526   2.006       .  S
O511        C512   1.267       .  A
C512        O513   1.267       .  A
C512        C690   1.507       .  S
O513       Cr527   2.010       .  S
O514       Cr527   2.018       .  S
O514        C515   1.273       .  A
C515        C543   1.478       .  S
O516       Cr525   1.989       .  S
O516        C524   1.248       .  A
O517       Cr525   1.960       .  S
O517        C518   1.268       .  A
C518        O519   1.274       .  A
C518        C703   1.497       .  S
O519       Cr526   2.036       .  S
O520       Cr526   1.987       .  S
O520        C521   1.262       .  A
C521        O522   1.264       .  A
C521        C743   1.482       .  S
O522       Cr527   1.993       .  S
O523       Cr527   2.023       .  S
O523        C524   1.263       .  A
C524        C713   1.508       .  S
Cr525       O528   1.773       .  S
Cr526       O528   1.779       .  S
Cr527       O528   1.775       .  S
C529        C530   1.416       .  A
C529        C534   1.422       .  A
C529       Br536   1.919       .  S
C530        C531   1.399       .  A
C531        C532   1.394       .  A
C531       Br538   1.939       .  S
C532        C533   1.411       .  A
C532       Br537   1.902       .  S
C533        C534   1.411       .  A
C534       Br535   1.926       .  S
C539        C540   1.416       .  A
C539        C544   1.409       .  A
C539       Br546   1.928       .  S
C540        C541   1.415       .  A
C541        C542   1.406       .  A
C541       Br548   1.935       .  S
C542        C543   1.410       .  A
C542       Br547   1.931       .  S
C543        C544   1.411       .  A
C544       Br545   1.932       .  S
C549        C550   1.423       .  A
C549        C554   1.414       .  A
C549      Br1684   1.933       .  S
C550        C551   1.429   1_556  A
C551        C552   1.407       .  A
C551       Br558   1.949       .  S
C552        C553   1.415       .  A
C552       Br557   1.940       .  S
C553        C554   1.409   1_554  A
C554      Br1683   1.933       .  S
Br555      C1682   1.933       .  S
Br556      C1677   1.933       .  S
C559        C560   1.413       .  A
C559        C564   1.406       .  A
C559       Br566   1.941       .  S
C560        C561   1.419       .  A
C561        C562   1.413       .  A
C561      Br1696   1.931       .  S
C562        C563   1.411       .  A
C562       Br567   1.931       .  S
C563        C564   1.424       .  A
C564       Br565   1.939       .  S
Br568      C1689   1.931       .  S
C569        C570   1.404       .  A
C569        C574   1.411       .  A
C569       Br576   1.929       .  S
C570        C571   1.411       .  A
C571        C572   1.399       .  A
C571       Br578   1.921       .  S
C572        C573   1.400       .  A
C572       Br577   1.917       .  S
C573        C574   1.419       .  A
C574       Br575   1.924       .  S
C579        C580   1.424       .  A
C579        C584   1.409       .  A
C579       Br586   1.943       .  S
C580        C581   1.428       .  A
C581        C582   1.412       .  A
C581      Br1716   1.935   1_554  S
C582        C583   1.404       .  A
C582      Br1715   1.930   1_554  S
C583        C584   1.420       .  A
C584       Br585   1.943       .  S
Br587      C1710   1.930       .  S
Br588      C1709   1.935       .  S
C589        C590   1.408       .  A
C589        C594   1.410       .  A
C589       Br596   1.925       .  S
C590        C591   1.417       .  A
C591        C592   1.424       .  A
C591       Br598   1.927       .  S
C592        C593   1.417       .  A
C592       Br597   1.927       .  S
C593        C594   1.419       .  A
C594       Br595   1.924       .  S
C599        C600   1.419       .  A
C599        C604   1.420       .  A
C599       Br606   1.933       .  S
C600        C601   1.418       .  A
C601        C602   1.418       .  A
C601       Br608   1.933       .  S
C602        C603   1.417       .  A
C602       Br607   1.924       .  S
C603        C604   1.420       .  A
C604       Br605   1.934       .  S
C609        C610   1.424       .  A
C609        C614   1.401       .  A
C609       Br616   1.941       .  S
C610        C611   1.431       .  A
C611        C612   1.412       .  A
C611       Br618   1.935   1_554  S
C612        C613   1.403       .  A
C612       Br617   1.933   1_554  S
C613        C614   1.407       .  A
C614       Br615   1.939       .  S
C619        C620   1.405   1_554  A
C619        C624   1.397       .  A
C619       Br626   1.894       .  S
C620        C621   1.409       .  A
C621        C622   1.422   1_556  A
C621       Br628   1.925       .  S
C622        C623   1.418       .  A
C622       Br627   1.925   1_554  S
C623        C624   1.399       .  A
C624       Br625   1.932       .  S
C629        C630   1.393       .  A
C629        C634   1.399       .  A
C629       Br636   1.898       .  S
C630        C631   1.415       .  A
C631        C632   1.413       .  A
C631       Br638   1.915       .  S
C632        C633   1.405       .  A
C632       Br637   1.926       .  S
C633        C634   1.412       .  A
C634       Br635   1.919       .  S
C639        C640   1.421       .  A
C639        C644   1.416       .  A
C639       Br646   1.933       .  S
C640        C641   1.416       .  A
C641        C642   1.408       .  A
C641       Br648   1.940       .  S
C642        C643   1.422       .  A
C642       Br647   1.940       .  S
C643        C644   1.414       .  A
C644       Br645   1.932       .  S
C649        C650   1.403       .  A
C649        C654   1.412       .  A
C649       Br656   1.926       .  S
C650        C651   1.412       .  A
C651        C652   1.404       .  A
C651       Br658   1.919       .  S
C652        C653   1.400       .  A
C652       Br657   1.914       .  S
C653        C654   1.420       .  A
C654       Br655   1.922       .  S
C659        C660   1.416       .  A
C659        C664   1.408       .  A
C659       Br666   1.932       .  S
C660        C661   1.424       .  A
C661        C662   1.410       .  A
C661       Br668   1.944       .  S
C662        C663   1.421       .  A
C662       Br667   1.937       .  S
C663        C664   1.411       .  A
C664      Br1793   1.924       .  S
Br665      C1792   1.924       .  S
C669        C670   1.404       .  A
C669        C674   1.413       .  A
C669       Br676   1.931       .  S
C670        C671   1.413       .  A
C671        C672   1.405       .  A
C671       Br678   1.916       .  S
C672        C673   1.404       .  A
C672       Br677   1.931       .  S
C673        C674   1.420       .  A
C674       Br675   1.923       .  S
C679        C680   1.407       .  A
C679        C684   1.403       .  A
C679       Br686   1.937       .  S
C680        C681   1.390       .  A
C681        C682   1.408       .  A
C681       Br688   1.918       .  S
C682        C683   1.431       .  A
C682       Br687   1.925       .  S
C683        C684   1.427       .  A
C684       Br685   1.938       .  S
C689        C690   1.416       .  A
C689        C694   1.427       .  A
C689       Br696   1.929       .  S
C690        C691   1.408       .  A
C691        C692   1.407       .  A
C691       Br698   1.926       .  S
C692        C693   1.420       .  A
C692       Br697   1.922       .  S
C693        C694   1.426       .  A
C694       Br695   1.930       .  S
C699        C700   1.421       .  A
C699        C704   1.391       .  A
C699       Br706   1.926       .  S
C700        C701   1.418       .  A
C701        C702   1.426       .  A
C701      Br1836   1.924       .  S
C702        C703   1.421       .  A
C702      Br1835   1.928       .  S
C703        C704   1.400       .  A
C704       Br705   1.933       .  S
Br707      C1830   1.928       .  S
Br708      C1829   1.924       .  S
C709        C710   1.418       .  A
C709        C714   1.414       .  A
C709       Br716   1.939       .  S
C710        C711   1.424       .  A
C711        C712   1.415       .  A
C711       Br718   1.921       .  S
C712        C713   1.409       .  A
C712       Br717   1.934       .  S
C713        C714   1.425       .  A
C714       Br715   1.938       .  S
C719        C720   1.411       .  A
C719        C724   1.396       .  A
C719       Br726   1.913       .  S
C720        C721   1.407       .  A
C721        C722   1.402       .  A
C721      Br1856   1.932       .  S
C722        C723   1.417       .  A
C722      Br1855   1.936       .  S
C723        C724   1.394       .  A
C724       Br725   1.926       .  S
Br727      C1850   1.936   1_554  S
Br728      C1849   1.932   1_554  S
C729        C730   1.422       .  A
C729        C734   1.406       .  A
C729       Br736   1.926       .  S
C730        C731   1.412       .  A
C731        C732   1.410       .  A
C731       Br738   1.936   1_655  S
C732        C733   1.422       .  A
C732       Br737   1.928       .  S
C733        C734   1.401       .  A
C734       Br735   1.931       .  S
C739        C740   1.416       .  A
C739        C744   1.400       .  A
C739       Br746   1.938       .  S
C740        C741   1.418       .  A
C741        C742   1.415       .  A
C741       Br748   1.930       .  S
C742        C743   1.410       .  A
C742       Br747   1.929       .  S
C743        C744   1.406       .  A
C744       Br745   1.920       .  S
C749        C750   1.408       .  A
C749        C754   1.409       .  A
C749       Br756   1.938       .  S
C750        C751   1.413       .  A
C751        C752   1.405       .  A
C751       Br758   1.943       .  S
C752        C753   1.429       .  A
C752       Br757   1.945       .  S
C753        C754   1.428       .  A
C754       Br755   1.939       .  S
C759        C760   1.420   1_554  A
C759        C764   1.412       .  A
C759       Br766   1.936       .  S
C760        C761   1.422       .  A
C761        C762   1.422       .  A
C761       Br768   1.930       .  S
C762        C763   1.415   1_556  A
C762       Br767   1.927       .  S
C763        C764   1.414       .  A
C764       Br765   1.935       .  S
C769        C770   1.422       .  A
C769        C774   1.413       .  A
C769       Br776   1.929       .  S
C770        C771   1.409       .  A
C771        C772   1.402       .  A
C771       Br778   1.934       .  S
C772        C773   1.411       .  A
C772       Br777   1.927       .  S
C773        C774   1.407       .  A
C774       Br775   1.935       .  S
C779        C780   1.408       .  A
C779        C784   1.412       .  A
C779       Br786   1.921       .  S
C780        C781   1.399       .  A
C781        C782   1.397       .  A
C781       Br788   1.918       .  S
C782        C783   1.406       .  A
C782       Br787   1.925       .  S
C783        C784   1.410       .  A
C784       Br785   1.927       .  S
C789        C790   1.417       .  A
C789        C794   1.409       .  A
C789       Br796   1.929       .  S
C790        C791   1.413       .  A
C791        C792   1.405       .  A
C791       Br798   1.939       .  S
C792        C793   1.424       .  A
C792       Br797   1.940       .  S
C793        C794   1.412       .  A
C794       Br795   1.935       .  S
C799        C800   1.407       .  A
C799        C804   1.409       .  A
C799       Br806   1.914       .  S
C800        C801   1.401       .  A
C801        C802   1.409       .  A
C801       Br808   1.938       .  S
C802        C803   1.433       .  A
C802       Br807   1.922       .  S
C803        C804   1.413       .  A
C804       Br805   1.936       .  S
C809        C810   1.412       .  A
C809        C814   1.409       .  A
C809       Br816   1.913       .  S
C810        C811   1.417       .  A
C811        C812   1.403       .  A
C811       Br818   1.934       .  S
C812        C813   1.407       .  A
C812       Br817   1.931       .  S
C813        C814   1.402       .  A
C814       Br815   1.929       .  S
C819        C820   1.411       .  A
C819        C824   1.418       .  A
C819       Br826   1.926       .  S
C820        C821   1.410       .  A
C821        C822   1.401       .  A
C821       Br828   1.908       .  S
C822        C823   1.399       .  A
C822       Br827   1.931       .  S
C823        C824   1.414       .  A
C824       Br825   1.926       .  S
C829        C830   1.419       .  A
C829        C834   1.418       .  A
C829       Br836   1.930       .  S
C830        C831   1.407       .  A
C831        C832   1.387       .  A
C831       Br838   1.927       .  S
C832        C833   1.411       .  A
C832       Br837   1.935       .  S
C833        C834   1.415       .  A
C834       Br835   1.926       .  S
C839        C840   1.417       .  A
C839        C844   1.414       .  A
C839       Br846   1.906       .  S
C840        C841   1.415       .  A
C841        C842   1.416       .  A
C841       Br848   1.929       .  S
C842        C843   1.412       .  A
C842       Br847   1.928       .  S
C843        C844   1.406       .  A
C844       Br845   1.929       .  S
C849        C850   1.408       .  A
C849        C854   1.406       .  A
C849       Br856   1.930       .  S
C850        C851   1.413       .  A
C851        C852   1.401       .  A
C851       Br858   1.924       .  S
C852        C853   1.399       .  A
C852       Br857   1.921       .  S
C853        C854   1.413       .  A
C854       Br855   1.924       .  S
C859        C860   1.417       .  A
C859        C864   1.415       .  A
C859      Br1994   1.922       .  S
C860        C861   1.409       .  A
C861        C862   1.408       .  A
C861       Br868   1.939       .  S
C862        C863   1.429       .  A
C862       Br867   1.939       .  S
C863        C864   1.415       .  A
C864       Br865   1.935       .  S
Br866      C1987   1.922       .  S
C869        C870   1.417   1_554  A
C869        C874   1.387       .  A
C869       Br876   1.927       .  S
C870       C1999   1.423       .  A
C871       C1998   1.423       .  A
C871       C2000   1.423       .  A
C871       Br878   1.930       .  S
C872        C873   1.413   1_556  A
C872       C1999   1.424       .  A
C872      Br2005   1.926       .  S
C873        C874   1.407       .  A
C874       Br875   1.934       .  S
Br877      C2000   1.926       .  S
C879        C880   1.409       .  A
C879        C884   1.404       .  A
C879       Br886   1.924       .  S
C880        C881   1.427       .  A
C881        C882   1.412       .  A
C881      Br2016   1.919       .  S
C882        C883   1.403       .  A
C882      Br2015   1.931       .  S
C883        C884   1.421       .  A
C884       Br885   1.929       .  S
Br887      C2010   1.931   1_554  S
Br888      C2009   1.919   1_554  S
C889        C890   1.399       .  A
C889        C894   1.413       .  A
C889       Br896   1.931       .  S
C890        C891   1.407       .  A
C891        C892   1.408       .  A
C891       Br898   1.935       .  S
C892        C893   1.414       .  A
C892       Br897   1.912       .  S
C893        C894   1.432       .  A
C894       Br895   1.922   1_554  S
C899        C900   1.412       .  A
C899        C904   1.400       .  A
C899       Br906   1.935       .  S
C900        C901   1.423       .  A
C901        C902   1.411       .  A
C901       Br908   1.930       .  S
C902        C903   1.411       .  A
C902       Br907   1.936       .  S
C903        C904   1.416       .  A
C904       Br905   1.935       .  S
C909        C910   1.425       .  A
C909        C914   1.399       .  A
C909       Br916   1.941       .  S
C910        C911   1.400       .  A
C911        C912   1.404       .  A
C911       Br918   1.930       .  S
C912        C913   1.424       .  A
C912       Br917   1.929       .  S
C913        C914   1.403       .  A
C914       Br915   1.929       .  S
C919        C920   1.418       .  A
C919        C924   1.409       .  A
C919       Br926   1.923       .  S
C920        C921   1.397   1_554  A
C921        C922   1.398       .  A
C921      Br2056   1.934       .  S
C922        C923   1.412   1_556  A
C922      Br2055   1.908       .  S
C923        C924   1.403       .  A
C924       Br925   1.931       .  S
Br927      C2050   1.908       .  S
Br928      C2049   1.934       .  S
C929        C930   1.423       .  A
C929        C934   1.418       .  A
C929       Br936   1.936       .  S
C930        C931   1.422       .  A
C931        C932   1.419       .  A
C931       Br938   1.937       .  S
C932        C933   1.420       .  A
C932       Br937   1.932       .  S
C933        C934   1.415       .  A
C934       Br935   1.934       .  S
C939        C940   1.415       .  A
C939        C944   1.400       .  A
C939       Br946   1.917       .  S
C940        C941   1.414       .  A
C941        C942   1.421       .  A
C941       Br948   1.924       .  S
C942        C943   1.413       .  A
C942       Br947   1.925       .  S
C943        C944   1.401       .  A
C944       Br945   1.932       .  S
C949        C950   1.417       .  A
C949        C954   1.409       .  A
C949       Br956   1.938       .  S
C950        C951   1.420       .  A
C951        C952   1.417       .  A
C951      Br2086   1.934       .  S
C952        C953   1.418       .  A
C952      Br2085   1.935       .  S
C953        C954   1.419       .  A
C954       Br955   1.939       .  S
Br957      C2080   1.936       .  S
Br958      C2079   1.934       .  S
C959        C960   1.431       .  A
C959        C964   1.414       .  A
C959       Br966   1.941       .  S
C960        C961   1.424       .  A
C961        C962   1.424       .  A
C961       Br968   1.932       .  S
C962        C963   1.418       .  A
C962       Br967   1.933       .  S
C963        C964   1.411       .  A
C964       Br965   1.936       .  S
C969        C970   1.423       .  A
C969        C974   1.418       .  A
C969       Br976   1.936       .  S
C970        C971   1.419       .  A
C971        C972   1.415       .  A
C971       Br978   1.934       .  S
C972        C973   1.415       .  A
C972       Br977   1.934       .  S
C973        C974   1.422       .  A
C974       Br975   1.937       .  S
C979        C980   1.417       .  A
C979        C984   1.404       .  A
C979       Br986   1.941       .  S
C980        C981   1.412       .  A
C981        C982   1.412       .  A
C981       Br988   1.933       .  S
C982        C983   1.423       .  A
C982       Br987   1.933       .  S
C983        C984   1.415       .  A
C984       Br985   1.938       .  S
C989        C990   1.400       .  A
C989        C994   1.397       .  A
C989       Br996   1.926       .  S
C990        C991   1.412   1_554  A
C991        C992   1.416       .  A
C991       Br998   1.927       .  S
C992        C993   1.410       .  A
C992      Br2125   1.925       .  S
C993        C994   1.414   1_556  A
C994       Br995   1.922       .  S
Br997      C2120   1.925       .  S
C999       C1000   1.405       .  A
C999       C1004   1.399       .  A
C999      Br1006   1.915       .  S
C1000      C1001   1.408       .  A
C1001      C1002   1.419       .  A
C1001     Br1008   1.928       .  S
C1002      C1003   1.422       .  A
C1002     Br1007   1.928       .  S
C1003      C1004   1.412       .  A
C1004     Br1005   1.928       .  S
C1009      C1010   1.416       .  A
C1009      C1014   1.409       .  A
C1009     Br1016   1.935       .  S
C1010      C1011   1.420       .  A
C1011      C1012   1.423       .  A
C1011     Br1018   1.930       .  S
C1012      C1013   1.414       .  A
C1012     Br1017   1.929       .  S
C1013      C1014   1.415       .  A
C1014     Br1015   1.936       .  S
C1019      C1020   1.413       .  A
C1019      C1024   1.407       .  A
C1019     Br1026   1.939       .  S
C1020      C1021   1.417       .  A
C1021      C1022   1.417       .  A
C1021     Br1028   1.923       .  S
C1022      C1023   1.420       .  A
C1022     Br1027   1.936       .  S
C1023      C1024   1.422       .  A
C1024     Br1025   1.936       .  S
C1029      C1030   1.405       .  A
C1029      C1034   1.387       .  A
C1029     Br1036   1.911       .  S
C1030      C1031   1.405       .  A
C1031      C1032   1.410       .  A
C1031     Br1038   1.922       .  S
C1032      C1033   1.411       .  A
C1032     Br1037   1.913       .  S
C1033      C1034   1.395       .  A
C1034     Br1035   1.916       .  S
C1039      C1040   1.420       .  A
C1039      C1044   1.412       .  A
C1039     Br1046   1.930       .  S
C1040      C1041   1.427       .  A
C1041      C1042   1.411       .  A
C1041     Br1048   1.935       .  S
C1042      C1043   1.405       .  A
C1042     Br2175   1.934       .  S
C1043      C1044   1.416       .  A
C1044     Br1045   1.933       .  S
Br1047     C2170   1.934       .  S
C1049      C1050   1.415   1_554  A
C1049      C1054   1.409       .  A
C1049     Br1056   1.931       .  S
C1050      C1051   1.425       .  A
C1051      C1052   1.413       .  A
C1051     Br2186   1.913       .  S
C1052      C1053   1.403   1_556  A
C1052     Br1057   1.932       .  S
C1053      C1054   1.412       .  A
C1054     Br1055   1.932       .  S
Br1058     C2179   1.913       .  S
C1059      C1060   1.407       .  A
C1059      C1064   1.398       .  A
C1059     Br1066   1.903       .  S
C1060      C1061   1.408       .  A
C1061      C1062   1.416       .  A
C1061     Br1068   1.927       .  S
C1062      C1063   1.418       .  A
C1062     Br1067   1.917       .  S
C1063      C1064   1.406       .  A
C1064     Br1065   1.936       .  S
C1069      C1070   1.415       .  A
C1069      C1074   1.420       .  A
C1069     Br1076   1.932       .  S
C1070      C1071   1.421       .  A
C1071      C1072   1.406       .  A
C1071     Br1078   1.945       .  S
C1072      C1073   1.416       .  A
C1072     Br1077   1.926       .  S
C1073      C1074   1.424       .  A
C1074     Br1075   1.931       .  S
C1079      C1080   1.401       .  A
C1079      C1084   1.394       .  A
C1079     Br1086   1.918       .  S
C1080      C1081   1.406       .  A
C1081      C1082   1.389       .  A
C1081     Br2216   1.931   1_565  S
C1082      C1083   1.403       .  A
C1082     Br2215   1.927       .  S
C1083      C1084   1.405       .  A
C1084     Br1085   1.919       .  S
Br1087     C2210   1.927       .  S
Br1088     C2209   1.931   1_545  S
C1089      C1090   1.414       .  A
C1089      C1094   1.411       .  A
C1089     Br1096   1.913       .  S
C1090      C1091   1.406       .  A
C1091      C1092   1.416       .  A
C1091     Br1098   1.935   1_565  S
C1092      C1093   1.432       .  A
C1092     Br1097   1.936       .  S
C1093      C1094   1.413       .  A
C1094     Br1095   1.939       .  S
C1099      C1100   1.416       .  A
C1099      C1104   1.407       .  A
C1099     Br1106   1.913       .  S
C1100      C1101   1.402       .  A
C1101      C1102   1.409       .  A
C1101     Br1108   1.930       .  S
C1102      C1103   1.416       .  A
C1102     Br1107   1.907       .  S
C1103      C1104   1.401       .  A
C1104     Br1105   1.932       .  S
C1109      C1110   1.399       .  A
C1109      C1114   1.401   1_554  A
C1109     Br2244   1.935   1_554  S
C1110      C1111   1.417       .  A
C1111      C1112   1.402       .  A
C1111     Br1118   1.938       .  S
C1112      C1113   1.415       .  A
C1112     Br1117   1.938   1_565  S
C1113      C1114   1.419   1_554  A
C1114     Br2243   1.919       .  S
Br1115     C2242   1.919       .  S
Br1116     C2237   1.935       .  S
C1119      C1120   1.410       .  A
C1119      C1124   1.399       .  A
C1119     Br1126   1.927       .  S
C1120      C1121   1.411       .  A
C1121      C1122   1.414       .  A
C1121     Br1128   1.931       .  S
C1122      C1123   1.421       .  A
C1122     Br1127   1.931       .  S
C1123      C1124   1.410       .  A
C1124     Br1125   1.934       .  S
O1129     Cr1147   2.033       .  S
O1129      C1137   1.280       .  A
O1130     Cr1147   1.958       .  S
O1130      C1131   1.255       .  A
C1131      O1132   1.272       .  A
C1131      C2198   1.509       .  S
O1132     Cr1148   2.026       .  S
O1133     Cr1148   2.022       .  S
O1133      C1134   1.256       .  A
C1134      O1135   1.240       .  A
C1134      C2221   1.510       .  S
O1135     Cr1149   1.970       .  S
O1136     Cr1149   1.923       .  S
O1136      C1137   1.256       .  A
C1137      C2211   1.438       .  S
O1138     Cr1147   1.996       .  S
O1138      C1146   1.252       .  A
O1139     Cr1147   1.992       .  S
O1139      C1140   1.264       .  A
C1140      O1141   1.263       .  A
C1140      C2248   1.487       .  S
O1141     Cr1148   1.979       .  S
O1142     Cr1148   2.072       .  S
O1142      C1143   1.288       .  A
C1143      O1144   1.255       .  A
C1143      C2228   1.480       .  S
O1144     Cr1149   1.928       .  S
O1145     Cr1149   1.964       .  S
O1145      C1146   1.237       .  A
C1146      C2238   1.468       .  S
Cr1147     O1150   1.767       .  S
Cr1148     O1150   1.766       .  S
Cr1149     O1150   1.769       .  S
O1151      C1159   1.266       .  A
O1152      C1153   1.283       .  A
C1153      O1154   1.255       .  A
C1153      C1184   1.498       .  S
O1154     Cr1170   1.933       .  S
O1155     Cr1170   2.002       .  S
O1155      C1156   1.263   1_545  A
C1156      O1157   1.255       .  A
C1156      C2241   1.479       .  S
O1158     Cr1171   2.019       .  S
C1159      C2178   1.506       .  S
O1160     Cr1169   2.105   1_556  S
O1160      C1168   1.281       .  A
O1161     Cr1169   1.996   1_556  S
O1161      C1162   1.266   1_556  A
C1162      C2171   1.492       .  S
O1163     Cr1170   2.003       .  S
O1164      C1165   1.254       .  A
C1165      O1166   1.272       .  A
C1165      C2188   1.485       .  S
O1166     Cr1171   2.051   1_545  S
O1167     Cr1171   1.928   1_545  S
O1167      C1168   1.256       .  A
C1168      C1181   1.501       .  S
Cr1169     O1172   1.776   1_554  S
Cr1171     O1172   1.747   1_565  S
O1173     Cr1191   2.133       .  S
O1173      C1181   1.277       .  A
O1174     Cr1191   1.966       .  S
O1174      C1175   1.267       .  A
C1175      O1176   1.282       .  A
C1175      C2138   1.509       .  S
O1176     Cr1192   2.060       .  S
O1177     Cr1192   1.961       .  S
O1177      C1178   1.253       .  A
C1178      O1179   1.265       .  A
C1178      C2161   1.476       .  S
O1179     Cr1193   2.004   1_545  S
O1180     Cr1193   1.937   1_545  S
O1180      C1181   1.233       .  A
O1182     Cr1191   1.949   1_565  S
O1182      C1190   1.261       .  A
O1183     Cr1191   2.111       .  S
O1183      C1184   1.279       .  A
C1184      O1185   1.246   1_545  A
O1185     Cr1192   1.943   1_565  S
O1186     Cr1192   2.048   1_565  S
O1186      C1187   1.277       .  A
C1187      O1188   1.250       .  A
C1187      C2231   1.485       .  S
O1188     Cr1193   1.944       .  S
O1189     Cr1193   2.054       .  S
O1189      C1190   1.280       .  A
C1190      C2148   1.502       .  S
Cr1191     O1194   1.783       .  S
Cr1192     O1194   1.727       .  S
Cr1193     O1194   1.729   1_565  S
O1195     Cr1213   2.004       .  S
O1195      C1203   1.257       .  A
O1196     Cr1213   1.951       .  S
O1196      C1197   1.256       .  A
C1197      O1198   1.274       .  A
C1197      C2108   1.488       .  S
O1198     Cr1214   2.043       .  S
O1199     Cr1214   1.979       .  S
O1199      C1200   1.264       .  A
C1200      O1201   1.271       .  A
C1200      C2131   1.498       .  S
O1201     Cr1215   2.023       .  S
O1202     Cr1215   1.980       .  S
O1202      C1203   1.258       .  A
C1203      C2118   1.473       .  S
O1204     Cr1213   1.949       .  S
O1204      C1212   1.259       .  A
O1205     Cr1213   2.007       .  S
O1205      C1206   1.259       .  A
C1206      O1207   1.260       .  A
C1206      C2151   1.504       .  S
O1207     Cr1214   1.999       .  S
O1208     Cr1214   2.008       .  S
O1208      C1209   1.265       .  A
C1209      O1210   1.261       .  A
C1209      C2251   1.489       .  S
O1210     Cr1215   1.958       .  S
O1211     Cr1215   2.053       .  S
O1211      C1212   1.278       .  A
C1212      C2181   1.490       .  S
Cr1213     O1216   1.761       .  S
Cr1214     O1216   1.774       .  S
Cr1215     O1216   1.770       .  S
O1217     Cr1235   1.970       .  S
O1217      C1225   1.260       .  A
O1218     Cr1235   2.012       .  S
O1218      C1219   1.264       .  A
C1219      O1220   1.261       .  A
C1219      C2071   1.482       .  S
O1220     Cr1236   1.992       .  S
O1221     Cr1236   2.030       .  S
O1221      C1222   1.272       .  A
C1222      O1223   1.265       .  A
C1222      C2091   1.509       .  S
O1223     Cr1237   1.999       .  S
O1224     Cr1237   2.025       .  S
O1224      C1225   1.267       .  A
C1225      C2078   1.501       .  S
O1226     Cr1235   1.993       .  S
O1226      C1234   1.261       .  A
O1227     Cr1235   1.964       .  S
O1227      C1228   1.256       .  A
C1228      O1229   1.273       .  A
C1228      C2141   1.501       .  S
O1229     Cr1236   2.051       .  S
O1230     Cr1236   1.993       .  S
O1230      C1231   1.266       .  A
C1231      O1232   1.269       .  A
C1231      C2098   1.512       .  S
O1232     Cr1237   2.024       .  S
O1233     Cr1237   1.997       .  S
O1233      C1234   1.266       .  A
C1234      C2168   1.508       .  S
Cr1235     O1238   1.768       .  S
Cr1236     O1238   1.776       .  S
Cr1237     O1238   1.776       .  S
O1239     Cr1257   2.070       .  S
O1239      C1247   1.277       .  A
O1240     Cr1257   1.995       .  S
O1240      C1241   1.266       .  A
C1241      O1242   1.270       .  A
C1241      C2061   1.512       .  S
O1242     Cr1258   2.026       .  S
O1243     Cr1258   1.989       .  S
O1243      C1244   1.250       .  A
C1244      O1245   1.256       .  A
C1244      C2048   1.469       .  S
O1245     Cr1259   1.983       .  S
O1246     Cr1259   1.910       .  S
O1246      C1247   1.239       .  A
C1247      C2038   1.478       .  S
O1248     Cr1257   1.984       .  S
O1248      C1256   1.262       .  A
O1249     Cr1257   2.045       .  S
O1249      C1250   1.280       .  A
C1250      O1251   1.258       .  A
C1250      C2128   1.484       .  S
O1251     Cr1258   1.956       .  S
O1252     Cr1258   2.067       .  S
O1252      C1253   1.282       .  A
C1253      O1254   1.250       .  A
C1253      C2018   1.473       .  S
O1254     Cr1259   1.923       .  S
O1255     Cr1259   1.998       .  S
O1255      C1256   1.255       .  A
C1256      C2031   1.486       .  S
Cr1257     O1260   1.761       .  S
Cr1258     O1260   1.766       .  S
Cr1259     O1260   1.745       .  S
O1261      C1269   1.266   1_556  A
O1262      C1263   1.276       .  A
C1263      O1264   1.257       .  A
C1263      C1294   1.497       .  S
O1264     Cr1280   1.930       .  S
O1265     Cr1280   2.059       .  S
O1265      C1266   1.278   1_455  A
C1266      O1267   1.252       .  A
C1266      C2008   1.505       .  S
O1268     Cr1281   2.036       .  S
C1269      C1988   1.503       .  S
O1270     Cr1279   2.103       .  S
O1270      C1278   1.278       .  A
O1271     Cr1279   1.954       .  S
O1271      C1272   1.261       .  A
C1272      C1998   1.500       .  S
O1273     Cr1280   2.022       .  S
O1274      C1275   1.245       .  A
C1275      O1276   1.269       .  A
C1275      C2051   1.469       .  S
O1276     Cr1281   2.042   1_455  S
O1277     Cr1281   1.931   1_455  S
O1277      C1278   1.248       .  A
C1278      C1291   1.489       .  S
Cr1279     O1282   1.784       .  S
Cr1281     O1282   1.742   1_655  S
O1283     Cr1301   2.106       .  S
O1283      C1291   1.283       .  A
O1284     Cr1301   1.968       .  S
O1284      C1285   1.261       .  A
C1285      O1286   1.283       .  A
C1285      C1968   1.506       .  S
O1286     Cr1302   2.070       .  S
O1287     Cr1302   1.922       .  S
O1287      C1288   1.246       .  A
C1288      O1289   1.273       .  A
C1288      C2041   1.480       .  S
O1289     Cr1303   2.050   1_455  S
O1290     Cr1303   1.915   1_455  S
O1290      C1291   1.250       .  A
O1292     Cr1301   1.952   1_655  S
O1292      C1300   1.257       .  A
O1293     Cr1301   2.136       .  S
O1293      C1294   1.286       .  A
C1294      O1295   1.234   1_455  A
O1295     Cr1302   1.921   1_655  S
O1296     Cr1302   2.035   1_655  S
O1296      C1297   1.270       .  A
C1297      O1298   1.248       .  A
C1297      C1981   1.469       .  S
O1298     Cr1303   1.954       .  S
O1299     Cr1303   2.016       .  S
O1299      C1300   1.271       .  A
C1300      C1961   1.486       .  S
Cr1301     O1304   1.782       .  S
Cr1302     O1304   1.720       .  S
Cr1303     O1304   1.738   1_655  S
O1305     Cr1323   2.054       .  S
O1305      C1313   1.278       .  A
O1306     Cr1323   1.990       .  S
O1306      C1307   1.265       .  A
C1307      O1308   1.268       .  A
C1307      C2101   1.510       .  S
O1308     Cr1324   2.017       .  S
O1309     Cr1324   2.020       .  S
O1309      C1310   1.258       .  A
C1310      O1311   1.252       .  A
C1310      C2191   1.487       .  S
O1311     Cr1325   1.967       .  S
O1312     Cr1325   1.929       .  S
O1312      C1313   1.254       .  A
C1313      C2158   1.463       .  S
O1314     Cr1323   2.024       .  S
O1314      C1322   1.264       .  A
O1315     Cr1323   2.028       .  S
O1315      C1316   1.272       .  A
C1316      O1317   1.262       .  A
C1316      C1948   1.487       .  S
O1317     Cr1324   1.974       .  S
O1318     Cr1324   2.062       .  S
O1318      C1319   1.280       .  A
C1319      O1320   1.256       .  A
C1319      C1941   1.474       .  S
O1320     Cr1325   1.928       .  S
O1321     Cr1325   1.981       .  S
O1321      C1322   1.247       .  A
C1322      C1931   1.508       .  S
Cr1323     O1326   1.765       .  S
Cr1324     O1326   1.768       .  S
Cr1325     O1326   1.753       .  S
O1327     Cr1345   2.007       .  S
O1327      C1335   1.267       .  A
O1328     Cr1345   2.067       .  S
O1328      C1329   1.270       .  A
C1329      O1330   1.247   1_545  A
C1329      C1360   1.493       .  S
O1330     Cr1346   1.978       .  S
O1331     Cr1346   2.025   1_545  S
O1331      C1332   1.275       .  A
C1332      O1333   1.253       .  A
C1332      C1928   1.469       .  S
O1333     Cr1347   1.952       .  S
O1334     Cr1347   1.970       .  S
O1334      C1335   1.262       .  A
C1335      C1918   1.489       .  S
O1336     Cr1345   2.056       .  S
O1336      C1344   1.273       .  A
O1337     Cr1345   2.029   1_565  S
O1337      C1338   1.274       .  A
C1338      O1339   1.259       .  A
C1338      C1911   1.465       .  S
O1339     Cr1346   1.940       .  S
O1340     Cr1346   1.975       .  S
O1340      C1341   1.257       .  A
C1341      O1342   1.277   1_565  A
C1341      C2218   1.489       .  S
O1342     Cr1347   2.035       .  S
O1343     Cr1347   1.964       .  S
O1343      C1344   1.253       .  A
C1344      C1357   1.492       .  S
Cr1345     O1348   1.789       .  S
Cr1346     O1348   1.777   1_565  S
Cr1347     O1348   1.767       .  S
O1349     Cr1367   2.112       .  S
O1349      C1357   1.283       .  A
O1350     Cr1367   1.970   1_565  S
O1350      C1351   1.261       .  A
C1351      C1888   1.513       .  S
O1352     Cr1368   2.054   1_565  S
O1353      C1354   1.258       .  A
C1354      O1355   1.254   1_565  A
C1354      C2208   1.450       .  S
O1355     Cr1369   1.967       .  S
O1356     Cr1369   1.951       .  S
O1356      C1357   1.244       .  A
O1358      C1366   1.265   1_556  A
O1359      C1360   1.285       .  A
C1360      O1361   1.245       .  A
O1361     Cr1368   1.958       .  S
O1362     Cr1368   2.012       .  S
O1362      C1363   1.267       .  A
C1363      O1364   1.263   1_556  A
C1363      C1938   1.492       .  S
O1365     Cr1369   2.012       .  S
C1366      C1898   1.490       .  S
Cr1367     O1370   1.768       .  S
Cr1369     O1370   1.741       .  S
O1371     Cr1389   1.937       .  S
O1371      C1379   1.260       .  A
O1372     Cr1389   1.994       .  S
O1372      C1373   1.254       .  A
C1373      O1374   1.266       .  A
C1373      C1991   1.504       .  S
O1374     Cr1390   2.017       .  S
O1375     Cr1390   2.006       .  S
O1375      C1376   1.263       .  A
C1376      O1377   1.254       .  A
C1376      C1881   1.502       .  S
O1377     Cr1391   1.958       .  S
O1378     Cr1391   2.031       .  S
O1378      C1379   1.271       .  A
C1379      C1958   1.487       .  S
O1380     Cr1389   1.983       .  S
O1380      C1388   1.250       .  A
O1381     Cr1389   1.959       .  S
O1381      C1382   1.262       .  A
C1382      O1383   1.274       .  A
C1382      C1901   1.480       .  S
O1383     Cr1390   2.036       .  S
O1384     Cr1390   1.984       .  S
O1384      C1385   1.267       .  A
C1385      O1386   1.265       .  A
C1385      C1951   1.478       .  S
O1386     Cr1391   2.008       .  S
O1387     Cr1391   1.999       .  S
O1387      C1388   1.260       .  A
C1388      C1921   1.491       .  S
Cr1389     O1392   1.756       .  S
Cr1390     O1392   1.764       .  S
Cr1391     O1392   1.767       .  S
O1393     Cr1411   2.026       .  S
O1393      C1401   1.281       .  A
O1394     Cr1411   1.994       .  S
O1394      C1395   1.265       .  A
C1395      O1396   1.260       .  A
C1395      C1868   1.491       .  S
O1396     Cr1412   1.975       .  S
O1397     Cr1412   2.017       .  S
O1397      C1398   1.256       .  A
C1398      O1399   1.239       .  A
C1398      C1861   1.489       .  S
O1399     Cr1413   1.970       .  S
O1400     Cr1413   1.953       .  S
O1400      C1401   1.268       .  A
C1401      C1848   1.465       .  S
O1402     Cr1411   2.036       .  S
O1402      C1410   1.257       .  A
O1403     Cr1411   1.979       .  S
O1403      C1404   1.262       .  A
C1404      O1405   1.256       .  A
C1404      C1878   1.489       .  S
O1405     Cr1412   1.961       .  S
O1406     Cr1412   2.030       .  S
O1406      C1407   1.280       .  A
C1407      O1408   1.267       .  A
C1407      C1978   1.476       .  S
O1408     Cr1413   1.962       .  S
O1409     Cr1413   1.965       .  S
O1409      C1410   1.234       .  A
C1410      C2011   1.492       .  S
Cr1411     O1414   1.767       .  S
Cr1412     O1414   1.767       .  S
Cr1413     O1414   1.766       .  S
O1415     Cr1433   1.973       .  S
O1415      C1423   1.261       .  A
O1416     Cr1433   2.113       .  S
O1416      C1417   1.282       .  A
C1417      O1418   1.248       .  A
C1417      C1448   1.500       .  S
O1418     Cr1434   1.917   1_455  S
O1419     Cr1434   2.013   1_455  S
O1419      C1420   1.266       .  A
C1420      O1421   1.255       .  A
C1420      C2028   1.489       .  S
O1421     Cr1435   1.973       .  S
O1422     Cr1435   2.010       .  S
O1422      C1423   1.264       .  A
C1423      C2111   1.498       .  S
O1424     Cr1433   2.097       .  S
O1424      C1432   1.281       .  A
O1425     Cr1433   1.985   1_655  S
O1425      C1426   1.263       .  A
C1426      O1427   1.269       .  A
C1426      C1838   1.513       .  S
O1427     Cr1434   2.031       .  S
O1428     Cr1434   1.957       .  S
O1428      C1429   1.256       .  A
C1429      O1430   1.272   1_655  A
C1429      C1858   1.493       .  S
O1430     Cr1435   2.044       .  S
O1431     Cr1435   1.926       .  S
O1431      C1432   1.260       .  A
C1432      C1445   1.493       .  S
Cr1433     O1436   1.771       .  S
Cr1434     O1436   1.740   1_655  S
Cr1435     O1436   1.751       .  S
O1437     Cr1455   2.129   1_556  S
O1437      C1445   1.278       .  A
O1438     Cr1455   1.949   1_656  S
O1438      C1439   1.259   1_556  A
C1439      C1828   1.505   1_554  S
O1440     Cr1456   2.048       .  S
O1441      C1442   1.236   1_554  A
C1442      O1443   1.269       .  A
C1442      C1851   1.458       .  S
O1443     Cr1457   2.029   1_655  S
O1444     Cr1457   1.925   1_655  S
O1444      C1445   1.232   1_655  A
O1446      C1454   1.260       .  A
O1447      C1448   1.279       .  A
C1448      O1449   1.250       .  A
O1449     Cr1456   1.920   1_455  S
O1450     Cr1456   2.091   1_455  S
O1450      C1451   1.290       .  A
C1451      O1452   1.248       .  A
C1451      C2021   1.510       .  S
O1453     Cr1457   2.058       .  S
C1454      C2121   1.482       .  S
Cr1455     O1458   1.800       .  S
Cr1457     O1458   1.730   1_556  S
O1459     Cr1477   1.913       .  S
O1459      C1467   1.251       .  A
O1460     Cr1477   1.994       .  S
O1460      C1461   1.261       .  A
C1461      O1462   1.255       .  A
C1461      C1801   1.486       .  S
O1462     Cr1478   1.994       .  S
O1463     Cr1478   2.031       .  S
O1463      C1464   1.271       .  A
C1464      O1465   1.264       .  A
C1464      C1821   1.527       .  S
O1465     Cr1479   1.988       .  S
O1466     Cr1479   2.077       .  S
O1466      C1467   1.283       .  A
C1467      C1808   1.480       .  S
O1468     Cr1477   1.993       .  S
O1468      C1476   1.252       .  A
O1469     Cr1477   1.934       .  S
O1469      C1470   1.252       .  A
C1470      O1471   1.281       .  A
C1470      C1778   1.478       .  S
O1471     Cr1478   2.057       .  S
O1472     Cr1478   1.962       .  S
O1472      C1473   1.256       .  A
C1473      O1474   1.276       .  A
C1473      C2088   1.527       .  S
O1474     Cr1479   2.048       .  S
O1475     Cr1479   1.999       .  S
O1475      C1476   1.258       .  A
C1476      C1788   1.500       .  S
Cr1477     O1480   1.762       .  S
Cr1478     O1480   1.763       .  S
Cr1479     O1480   1.765       .  S
O1481     Cr1499   1.950       .  S
O1481      C1489   1.250       .  A
O1482     Cr1499   2.037       .  S
O1482      C1483   1.275       .  A
C1483      O1484   1.265       .  A
C1483      C1768   1.502       .  S
O1484     Cr1500   1.966       .  S
O1485     Cr1500   2.110       .  S
O1485      C1486   1.275       .  A
C1486      O1487   1.246       .  A
C1486      C1514   1.503       .  S
O1487     Cr1501   1.943       .  S
O1488     Cr1501   2.030       .  S
O1488      C1489   1.270       .  A
C1489      C1758   1.482       .  S
O1490     Cr1499   2.049       .  S
O1490      C1498   1.275       .  A
O1491     Cr1499   1.925       .  S
O1491      C1492   1.255       .  A
C1492      O1493   1.277       .  A
C1492      C1511   1.501       .  S
O1493     Cr1500   2.106       .  S
O1494     Cr1500   1.969       .  S
O1494      C1495   1.264       .  A
C1495      O1496   1.281       .  A
C1495      C2068   1.498       .  S
O1496     Cr1501   2.049       .  S
O1497     Cr1501   1.951       .  S
O1497      C1498   1.253       .  A
C1498      C1781   1.484       .  S
Cr1499     O1502   1.746       .  S
Cr1500     O1502   1.795       .  S
Cr1501     O1502   1.742       .  S
O1503     Cr1521   2.134   1_556  S
O1503      C1511   1.275       .  A
O1504     Cr1521   1.961   1_556  S
O1504      C1505   1.262   1_556  A
C1505      C2081   1.505       .  S
O1506     Cr1522   2.039       .  S
O1507      C1508   1.257       .  A
C1508      O1509   1.259       .  A
C1508      C1791   1.499       .  S
O1509     Cr1523   1.994       .  S
O1510     Cr1523   1.929       .  S
O1510      C1511   1.230       .  A
O1512      C1520   1.259       .  A
O1513      C1514   1.282       .  A
C1514      O1515   1.249       .  A
O1515     Cr1522   1.929       .  S
O1516     Cr1522   2.021       .  S
O1516      C1517   1.272       .  A
C1517      O1518   1.258       .  A
C1517      C1738   1.498       .  S
O1519     Cr1523   2.061       .  S
C1520      C1748   1.492       .  S
Cr1521     O1524   1.799   1_554  S
Cr1523     O1524   1.730       .  S
O1525     Cr1543   1.999       .  S
O1525      C1533   1.258       .  A
O1526     Cr1543   1.924       .  S
O1526      C1527   1.258       .  A
C1527      O1528   1.278       .  A
C1527      C1741   1.474       .  S
O1528     Cr1544   2.051       .  S
O1529     Cr1544   2.008       .  S
O1529      C1530   1.269       .  A
C1530      O1531   1.270       .  A
C1530      C1721   1.515       .  S
O1531     Cr1545   2.024       .  S
O1532     Cr1545   1.982       .  S
O1532      C1533   1.251       .  A
C1533      C1761   1.481       .  S
O1534     Cr1543   1.941       .  S
O1534      C1542   1.254       .  A
O1535     Cr1543   1.985       .  S
O1535      C1536   1.248       .  A
C1536      O1537   1.265       .  A
C1536      C1711   1.496       .  S
O1537     Cr1544   2.019       .  S
O1538     Cr1544   2.042       .  S
O1538      C1539   1.274       .  A
C1539      O1540   1.259       .  A
C1539      C1731   1.517       .  S
O1540     Cr1545   1.976       .  S
O1541     Cr1545   2.037       .  S
O1541      C1542   1.274       .  A
C1542      C1698   1.475       .  S
Cr1543     O1546   1.774       .  S
Cr1544     O1546   1.769       .  S
Cr1545     O1546   1.773       .  S
O1547      C1555   1.255       .  A
O1548     Cr1565   2.020       .  S
C1549      O1550   1.260   1_554  A
C1549      C1688   1.498       .  S
O1551      C1552   1.280       .  A
C1552      O1553   1.248       .  A
C1552      C1577   1.499       .  S
O1553     Cr1567   1.914       .  S
O1554     Cr1567   2.024       .  S
O1554      C1555   1.269       .  A
C1555      C1811   1.502       .  S
O1556     Cr1565   2.016       .  S
O1556      C1564   1.264       .  A
O1557     Cr1565   1.913       .  S
O1557      C1558   1.251       .  A
C1558      O1559   1.284       .  A
C1558      C1580   1.496       .  S
O1559     Cr1566   2.112       .  S
O1560     Cr1566   1.946       .  S
O1560      C1561   1.253       .  A
C1561      C1678   1.506       .  S
O1562     Cr1567   2.025       .  S
O1563      C1564   1.253       .  A
C1564      C1708   1.506       .  S
Cr1565     O1568   1.738       .  S
Cr1566     O1568   1.775       .  S
O1569     Cr1587   2.117       .  S
O1569      C1577   1.276       .  A
O1570     Cr1587   1.954       .  S
O1570      C1571   1.264       .  A
C1571      O1572   1.277       .  A
C1571      C1668   1.487       .  S
O1572     Cr1588   2.040       .  S
O1573     Cr1588   1.958       .  S
O1573      C1574   1.251       .  A
C1574      O1575   1.267       .  A
C1574      C1798   1.481       .  S
O1575     Cr1589   2.030       .  S
O1576     Cr1589   1.937       .  S
O1576      C1577   1.242       .  A
O1578     Cr1587   1.969       .  S
O1578      C1586   1.263       .  A
O1579     Cr1587   2.110       .  S
O1579      C1580   1.275       .  A
C1580      O1581   1.245       .  A
O1581     Cr1588   1.917       .  S
O1582     Cr1588   2.027       .  S
O1582      C1583   1.273       .  A
C1583      O1584   1.254       .  A
C1583      C1701   1.477       .  S
O1584     Cr1589   1.953       .  S
O1585     Cr1589   2.046       .  S
O1585      C1586   1.280       .  A
C1586      C1661   1.493       .  S
Cr1587     O1590   1.803       .  S
Cr1588     O1590   1.733       .  S
Cr1589     O1590   1.736       .  S
O1591     Cr1609   1.968       .  S
O1591      C1599   1.265       .  A
O1592     Cr1609   1.993       .  S
O1592      C1593   1.253       .  A
C1593      O1594   1.262       .  A
C1593      C1771   1.501       .  S
O1594     Cr1610   2.012       .  S
O1595     Cr1610   2.020       .  S
O1595      C1596   1.270       .  A
C1596      O1597   1.266       .  A
C1596      C1718   1.506       .  S
O1597     Cr1611   2.000       .  S
O1598     Cr1611   2.041       .  S
O1598      C1599   1.276       .  A
C1599      C1751   1.479       .  S
O1600     Cr1609   1.985       .  S
O1600      C1608   1.251       .  A
O1601     Cr1609   1.975       .  S
O1601      C1602   1.260       .  A
C1602      O1603   1.275       .  A
C1602      C1971   1.493       .  S
O1603     Cr1610   2.048       .  S
O1604     Cr1610   1.988       .  S
O1604      C1605   1.263       .  A
C1605      O1606   1.269       .  A
C1605      C2058   1.516       .  S
O1606     Cr1611   2.024       .  S
O1607     Cr1611   2.015       .  S
O1607      C1608   1.264       .  A
C1608      C2001   1.485       .  S
Cr1609     O1612   1.772       .  S
Cr1610     O1612   1.774       .  S
Cr1611     O1612   1.781       .  S
O1613     Cr1631   1.948       .  S
O1613      C1621   1.257       .  A
O1614     Cr1631   1.993       .  S
O1614      C1615   1.256       .  A
C1615      O1616   1.263       .  A
C1615      C1681   1.489       .  S
O1616     Cr1632   2.000       .  S
O1617     Cr1632   2.022       .  S
O1617      C1618   1.268       .  A
C1618      O1619   1.265       .  A
C1618      C1728   1.513       .  S
O1619     Cr1633   2.001       .  S
O1620     Cr1633   2.038       .  S
O1620      C1621   1.269       .  A
C1621      C1658   1.478       .  S
O1622     Cr1631   1.991       .  S
O1622      C1630   1.256       .  A
O1623     Cr1631   1.967       .  S
O1623      C1624   1.264       .  A
C1624      O1625   1.276       .  A
C1624      C1891   1.511       .  S
O1625     Cr1632   2.056       .  S
O1626     Cr1632   1.980       .  S
O1626      C1627   1.266       .  A
C1627      O1628   1.269       .  A
C1627      C2201   1.511       .  S
O1628     Cr1633   2.016       .  S
O1629     Cr1633   1.991       .  S
O1629      C1630   1.259       .  A
C1630      C1908   1.468       .  S
Cr1631     O1634   1.776       .  S
Cr1632     O1634   1.777       .  S
Cr1633     O1634   1.786       .  S
O1635     Cr1653   1.976       .  S
O1635      C1643   1.268       .  A
O1636     Cr1653   1.977       .  S
O1636      C1637   1.245       .  A
C1637      O1638   1.261       .  A
C1637      C1691   1.494       .  S
O1638     Cr1654   2.018       .  S
O1639     Cr1654   2.006       .  S
O1639      C1640   1.267       .  A
C1640      O1641   1.267       .  A
C1640      C1818   1.507       .  S
O1641     Cr1655   2.010       .  S
O1642     Cr1655   2.018       .  S
O1642      C1643   1.273       .  A
C1643      C1671   1.478       .  S
O1644     Cr1653   1.989       .  S
O1644      C1652   1.248       .  A
O1645     Cr1653   1.960       .  S
O1645      C1646   1.268       .  A
C1646      O1647   1.274       .  A
C1646      C1831   1.497       .  S
O1647     Cr1654   2.036       .  S
O1648     Cr1654   1.987       .  S
O1648      C1649   1.262       .  A
C1649      O1650   1.264       .  A
C1649      C1871   1.482       .  S
O1650     Cr1655   1.993       .  S
O1651     Cr1655   2.023       .  S
O1651      C1652   1.263       .  A
C1652      C1841   1.508       .  S
Cr1653     O1656   1.773       .  S
Cr1654     O1656   1.779       .  S
Cr1655     O1656   1.775       .  S
C1657      C1658   1.416       .  A
C1657      C1662   1.422       .  A
C1657     Br1664   1.919       .  S
C1658      C1659   1.399       .  A
C1659      C1660   1.394       .  A
C1659     Br1666   1.939       .  S
C1660      C1661   1.411       .  A
C1660     Br1665   1.902       .  S
C1661      C1662   1.411       .  A
C1662     Br1663   1.926       .  S
C1667      C1668   1.416       .  A
C1667      C1672   1.409       .  A
C1667     Br1674   1.928       .  S
C1668      C1669   1.415       .  A
C1669      C1670   1.406       .  A
C1669     Br1676   1.935       .  S
C1670      C1671   1.410       .  A
C1670     Br1675   1.931       .  S
C1671      C1672   1.411       .  A
C1672     Br1673   1.932       .  S
C1677      C1678   1.423       .  A
C1677      C1682   1.414       .  A
C1678      C1679   1.429       .  A
C1679      C1680   1.407       .  A
C1679     Br1686   1.949       .  S
C1680      C1681   1.415       .  A
C1680     Br1685   1.940       .  S
C1681      C1682   1.409       .  A
C1687      C1688   1.413   1_556  A
C1687      C1692   1.406       .  A
C1687     Br1694   1.941       .  S
C1688      C1689   1.419       .  A
C1689      C1690   1.413       .  A
C1690      C1691   1.411   1_554  A
C1690     Br1695   1.931       .  S
C1691      C1692   1.424       .  A
C1692     Br1693   1.939       .  S
C1697      C1698   1.404       .  A
C1697      C1702   1.411       .  A
C1697     Br1704   1.929       .  S
C1698      C1699   1.411       .  A
C1699      C1700   1.399       .  A
C1699     Br1706   1.921       .  S
C1700      C1701   1.400       .  A
C1700     Br1705   1.917       .  S
C1701      C1702   1.419       .  A
C1702     Br1703   1.924       .  S
C1707      C1708   1.424       .  A
C1707      C1712   1.409       .  A
C1707     Br1714   1.943       .  S
C1708      C1709   1.428       .  A
C1709      C1710   1.412       .  A
C1710      C1711   1.404       .  A
C1711      C1712   1.420       .  A
C1712     Br1713   1.943       .  S
C1717      C1718   1.408       .  A
C1717      C1722   1.410       .  A
C1717     Br1724   1.925       .  S
C1718      C1719   1.417       .  A
C1719      C1720   1.424       .  A
C1719     Br1726   1.927       .  S
C1720      C1721   1.417       .  A
C1720     Br1725   1.927       .  S
C1721      C1722   1.419       .  A
C1722     Br1723   1.924       .  S
C1727      C1728   1.419       .  A
C1727      C1732   1.420       .  A
C1727     Br1734   1.933       .  S
C1728      C1729   1.418       .  A
C1729      C1730   1.418       .  A
C1729     Br1736   1.933       .  S
C1730      C1731   1.417       .  A
C1730     Br1735   1.924       .  S
C1731      C1732   1.420       .  A
C1732     Br1733   1.934       .  S
C1737      C1738   1.424       .  A
C1737      C1742   1.401       .  A
C1737     Br1744   1.941       .  S
C1738      C1739   1.431       .  A
C1739      C1740   1.412       .  A
C1739     Br1746   1.935       .  S
C1740      C1741   1.403       .  A
C1740     Br1745   1.932       .  S
C1741      C1742   1.407       .  A
C1742     Br1743   1.939       .  S
C1747      C1748   1.405       .  A
C1747      C1752   1.397       .  A
C1747     Br1754   1.894       .  S
C1748      C1749   1.412       .  A
C1749      C1750   1.423       .  A
C1749     Br1756   1.925       .  S
C1750      C1751   1.417       .  A
C1750     Br1755   1.927       .  S
C1751      C1752   1.398       .  A
C1752     Br1753   1.932       .  S
C1757      C1758   1.393       .  A
C1757      C1762   1.399       .  A
C1757     Br1764   1.900       .  S
C1758      C1759   1.415       .  A
C1759      C1760   1.413       .  A
C1759     Br1766   1.916       .  S
C1760      C1761   1.405       .  A
C1760     Br1765   1.927       .  S
C1761      C1762   1.412       .  A
C1762     Br1763   1.918       .  S
C1767      C1768   1.421       .  A
C1767      C1772   1.416       .  A
C1767     Br1774   1.933       .  S
C1768      C1769   1.416       .  A
C1769      C1770   1.408       .  A
C1769     Br1776   1.941       .  S
C1770      C1771   1.422       .  A
C1770     Br1775   1.940       .  S
C1771      C1772   1.414       .  A
C1772     Br1773   1.931       .  S
C1777      C1778   1.403       .  A
C1777      C1782   1.412       .  A
C1777     Br1784   1.926       .  S
C1778      C1779   1.412       .  A
C1779      C1780   1.404       .  A
C1779     Br1786   1.919       .  S
C1780      C1781   1.400       .  A
C1780     Br1785   1.914       .  S
C1781      C1782   1.420       .  A
C1782     Br1783   1.922       .  S
C1787      C1788   1.416       .  A
C1787      C1792   1.408       .  A
C1787     Br1794   1.932   1_556  S
C1788      C1789   1.424       .  A
C1789      C1790   1.410       .  A
C1789     Br1796   1.944       .  S
C1790      C1791   1.421       .  A
C1790     Br1795   1.937       .  S
C1791      C1792   1.411       .  A
C1797      C1798   1.404       .  A
C1797      C1802   1.413       .  A
C1797     Br1804   1.931       .  S
C1798      C1799   1.413       .  A
C1799      C1800   1.405       .  A
C1799     Br1806   1.916       .  S
C1800      C1801   1.404       .  A
C1800     Br1805   1.931       .  S
C1801      C1802   1.420       .  A
C1802     Br1803   1.923       .  S
C1807      C1808   1.407       .  A
C1807      C1812   1.403       .  A
C1807     Br1814   1.937       .  S
C1808      C1809   1.390       .  A
C1809      C1810   1.408       .  A
C1809     Br1816   1.918   1_556  S
C1810      C1811   1.431       .  A
C1810     Br1815   1.925   1_556  S
C1811      C1812   1.427       .  A
C1812     Br1813   1.938       .  S
C1817      C1818   1.416       .  A
C1817      C1822   1.427       .  A
C1817     Br1824   1.929       .  S
C1818      C1819   1.408       .  A
C1819      C1820   1.407       .  A
C1819     Br1826   1.926       .  S
C1820      C1821   1.420       .  A
C1820     Br1825   1.922       .  S
C1821      C1822   1.426       .  A
C1822     Br1823   1.930       .  S
C1827      C1828   1.421       .  A
C1827      C1832   1.391       .  A
C1827     Br1834   1.926       .  S
C1828      C1829   1.418   1_556  A
C1829      C1830   1.426       .  A
C1830      C1831   1.421   1_554  A
C1831      C1832   1.400       .  A
C1832     Br1833   1.933       .  S
C1837      C1838   1.418       .  A
C1837      C1842   1.414       .  A
C1837     Br1844   1.939       .  S
C1838      C1839   1.424       .  A
C1839      C1840   1.415       .  A
C1839     Br1846   1.921       .  S
C1840      C1841   1.409       .  A
C1840     Br1845   1.934       .  S
C1841      C1842   1.425       .  A
C1842     Br1843   1.938       .  S
C1847      C1848   1.411       .  A
C1847      C1852   1.396       .  A
C1847     Br1854   1.913       .  S
C1848      C1849   1.407       .  A
C1849      C1850   1.402       .  A
C1850      C1851   1.417       .  A
C1851      C1852   1.394       .  A
C1852     Br1853   1.926       .  S
C1857      C1858   1.422       .  A
C1857      C1862   1.406       .  A
C1857     Br1864   1.926       .  S
C1858      C1859   1.412       .  A
C1859      C1860   1.410       .  A
C1859     Br1866   1.936   1_655  S
C1860      C1861   1.422       .  A
C1860     Br1865   1.928       .  S
C1861      C1862   1.401       .  A
C1862     Br1863   1.931       .  S
C1867      C1868   1.416       .  A
C1867      C1872   1.400       .  A
C1867     Br1874   1.938       .  S
C1868      C1869   1.418       .  A
C1869      C1870   1.415       .  A
C1869     Br1876   1.930       .  S
C1870      C1871   1.410       .  A
C1870     Br1875   1.929       .  S
C1871      C1872   1.406       .  A
C1872     Br1873   1.920       .  S
C1877      C1878   1.408       .  A
C1877      C1882   1.409       .  A
C1877     Br1884   1.938       .  S
C1878      C1879   1.413       .  A
C1879      C1880   1.405       .  A
C1879     Br1886   1.943       .  S
C1880      C1881   1.429       .  A
C1880     Br1885   1.945       .  S
C1881      C1882   1.428       .  A
C1882     Br1883   1.939       .  S
C1887      C1888   1.420       .  A
C1887      C1892   1.412       .  A
C1887     Br1894   1.936       .  S
C1888      C1889   1.422       .  A
C1889      C1890   1.422       .  A
C1889     Br1896   1.930       .  S
C1890      C1891   1.415       .  A
C1890     Br1895   1.927       .  S
C1891      C1892   1.414       .  A
C1892     Br1893   1.935       .  S
C1897      C1898   1.422       .  A
C1897      C1902   1.413       .  A
C1897     Br1904   1.929       .  S
C1898      C1899   1.409   1_554  A
C1899      C1900   1.402       .  A
C1899     Br1906   1.934       .  S
C1900      C1901   1.411       .  A
C1900     Br1905   1.927       .  S
C1901      C1902   1.407   1_556  A
C1902     Br1903   1.935       .  S
C1907      C1908   1.408       .  A
C1907      C1912   1.412       .  A
C1907     Br1914   1.921       .  S
C1908      C1909   1.399       .  A
C1909      C1910   1.397       .  A
C1909     Br1916   1.918       .  S
C1910      C1911   1.406       .  A
C1910     Br1915   1.925       .  S
C1911      C1912   1.410       .  A
C1912     Br1913   1.927       .  S
C1917      C1918   1.417       .  A
C1917      C1922   1.409       .  A
C1917     Br1924   1.929       .  S
C1918      C1919   1.413       .  A
C1919      C1920   1.405       .  A
C1919     Br1926   1.939       .  S
C1920      C1921   1.424       .  A
C1920     Br1925   1.940       .  S
C1921      C1922   1.412       .  A
C1922     Br1923   1.935       .  S
C1927      C1928   1.407       .  A
C1927      C1932   1.409       .  A
C1927     Br1934   1.914       .  S
C1928      C1929   1.401       .  A
C1929      C1930   1.409       .  A
C1929     Br1936   1.938       .  S
C1930      C1931   1.433       .  A
C1930     Br1935   1.922       .  S
C1931      C1932   1.413       .  A
C1932     Br1933   1.936       .  S
C1937      C1938   1.412       .  A
C1937      C1942   1.409       .  A
C1937     Br1944   1.913       .  S
C1938      C1939   1.417       .  A
C1939      C1940   1.403       .  A
C1939     Br1946   1.934       .  S
C1940      C1941   1.407       .  A
C1940     Br1945   1.931       .  S
C1941      C1942   1.402       .  A
C1942     Br1943   1.929       .  S
C1947      C1948   1.411       .  A
C1947      C1952   1.418       .  A
C1947     Br1954   1.926       .  S
C1948      C1949   1.410       .  A
C1949      C1950   1.401       .  A
C1949     Br1956   1.908       .  S
C1950      C1951   1.399       .  A
C1950     Br1955   1.931       .  S
C1951      C1952   1.414       .  A
C1952     Br1953   1.926       .  S
C1957      C1958   1.419       .  A
C1957      C1962   1.418       .  A
C1957     Br1964   1.930       .  S
C1958      C1959   1.407       .  A
C1959      C1960   1.387       .  A
C1959     Br1966   1.927       .  S
C1960      C1961   1.411       .  A
C1960     Br1965   1.935       .  S
C1961      C1962   1.415       .  A
C1962     Br1963   1.926       .  S
C1967      C1968   1.417       .  A
C1967      C1972   1.414       .  A
C1967     Br1974   1.906       .  S
C1968      C1969   1.415       .  A
C1969      C1970   1.416       .  A
C1969     Br1976   1.929       .  S
C1970      C1971   1.412       .  A
C1970     Br1975   1.928       .  S
C1971      C1972   1.406       .  A
C1972     Br1973   1.929       .  S
C1977      C1978   1.408       .  A
C1977      C1982   1.406       .  A
C1977     Br1984   1.930       .  S
C1978      C1979   1.413       .  A
C1979      C1980   1.401       .  A
C1979     Br1986   1.924       .  S
C1980      C1981   1.399       .  A
C1980     Br1985   1.921       .  S
C1981      C1982   1.413       .  A
C1982     Br1983   1.924       .  S
C1987      C1988   1.417       .  A
C1987      C1992   1.415       .  A
C1988      C1989   1.409   1_554  A
C1989      C1990   1.408       .  A
C1989     Br1996   1.939       .  S
C1990      C1991   1.429       .  A
C1990     Br1995   1.939       .  S
C1991      C1992   1.415   1_556  A
C1992     Br1993   1.935       .  S
C1997      C1998   1.417       .  A
C1997      C2002   1.387       .  A
C1997     Br2004   1.927       .  S
C1999     Br2006   1.930       .  S
C2000      C2001   1.413       .  A
C2001      C2002   1.407       .  A
C2002     Br2003   1.934       .  S
C2007      C2008   1.409       .  A
C2007      C2012   1.404       .  A
C2007     Br2014   1.924       .  S
C2008      C2009   1.427       .  A
C2009      C2010   1.412       .  A
C2010      C2011   1.403       .  A
C2011      C2012   1.421       .  A
C2012     Br2013   1.929       .  S
C2017      C2018   1.399       .  A
C2017      C2022   1.413       .  A
C2017     Br2024   1.931       .  S
C2018      C2019   1.407       .  A
C2019      C2020   1.408       .  A
C2019     Br2026   1.935       .  S
C2020      C2021   1.414       .  A
C2020     Br2025   1.912       .  S
C2021      C2022   1.432       .  A
C2022     Br2023   1.922       .  S
C2027      C2028   1.412       .  A
C2027      C2032   1.400       .  A
C2027     Br2034   1.935       .  S
C2028      C2029   1.423       .  A
C2029      C2030   1.411       .  A
C2029     Br2036   1.930       .  S
C2030      C2031   1.411       .  A
C2030     Br2035   1.936       .  S
C2031      C2032   1.416       .  A
C2032     Br2033   1.935       .  S
C2037      C2038   1.425       .  A
C2037      C2042   1.399       .  A
C2037     Br2044   1.941       .  S
C2038      C2039   1.400       .  A
C2039      C2040   1.404       .  A
C2039     Br2046   1.930       .  S
C2040      C2041   1.424       .  A
C2040     Br2045   1.929       .  S
C2041      C2042   1.403       .  A
C2042     Br2043   1.929       .  S
C2047      C2048   1.418       .  A
C2047      C2052   1.409       .  A
C2047     Br2054   1.923       .  S
C2048      C2049   1.397       .  A
C2049      C2050   1.398       .  A
C2050      C2051   1.412       .  A
C2051      C2052   1.403       .  A
C2052     Br2053   1.931       .  S
C2057      C2058   1.423       .  A
C2057      C2062   1.418       .  A
C2057     Br2064   1.936       .  S
C2058      C2059   1.422       .  A
C2059      C2060   1.419       .  A
C2059     Br2066   1.937       .  S
C2060      C2061   1.420       .  A
C2060     Br2065   1.932       .  S
C2061      C2062   1.415       .  A
C2062     Br2063   1.934       .  S
C2067      C2068   1.415       .  A
C2067      C2072   1.400       .  A
C2067     Br2074   1.916       .  S
C2068      C2069   1.414       .  A
C2069      C2070   1.421       .  A
C2069     Br2076   1.924       .  S
C2070      C2071   1.413       .  A
C2070     Br2075   1.925       .  S
C2071      C2072   1.401       .  A
C2072     Br2073   1.932       .  S
C2077      C2078   1.417       .  A
C2077      C2082   1.409       .  A
C2077     Br2084   1.938       .  S
C2078      C2079   1.420   1_556  A
C2079      C2080   1.417       .  A
C2080      C2081   1.418       .  A
C2081      C2082   1.419   1_554  A
C2082     Br2083   1.939       .  S
C2087      C2088   1.431       .  A
C2087      C2092   1.414       .  A
C2087     Br2094   1.941       .  S
C2088      C2089   1.424       .  A
C2089      C2090   1.424       .  A
C2089     Br2096   1.932       .  S
C2090      C2091   1.418       .  A
C2090     Br2095   1.933       .  S
C2091      C2092   1.411       .  A
C2092     Br2093   1.936       .  S
C2097      C2098   1.423       .  A
C2097      C2102   1.418       .  A
C2097     Br2104   1.936       .  S
C2098      C2099   1.419       .  A
C2099      C2100   1.415       .  A
C2099     Br2106   1.934       .  S
C2100      C2101   1.415       .  A
C2100     Br2105   1.934       .  S
C2101      C2102   1.422       .  A
C2102     Br2103   1.937       .  S
C2107      C2108   1.417       .  A
C2107      C2112   1.404       .  A
C2107     Br2114   1.941       .  S
C2108      C2109   1.412       .  A
C2109      C2110   1.412       .  A
C2109     Br2116   1.933       .  S
C2110      C2111   1.423       .  A
C2110     Br2115   1.933       .  S
C2111      C2112   1.415       .  A
C2112     Br2113   1.938       .  S
C2117      C2118   1.400       .  A
C2117      C2122   1.397       .  A
C2117     Br2124   1.926       .  S
C2118      C2119   1.412       .  A
C2119      C2120   1.416       .  A
C2119     Br2126   1.927       .  S
C2120      C2121   1.410       .  A
C2121      C2122   1.414       .  A
C2122     Br2123   1.922       .  S
C2127      C2128   1.405       .  A
C2127      C2132   1.399       .  A
C2127     Br2134   1.915       .  S
C2128      C2129   1.408       .  A
C2129      C2130   1.419       .  A
C2129     Br2136   1.928       .  S
C2130      C2131   1.422       .  A
C2130     Br2135   1.928       .  S
C2131      C2132   1.412       .  A
C2132     Br2133   1.928       .  S
C2137      C2138   1.416       .  A
C2137      C2142   1.409       .  A
C2137     Br2144   1.935       .  S
C2138      C2139   1.420       .  A
C2139      C2140   1.423       .  A
C2139     Br2146   1.930       .  S
C2140      C2141   1.414       .  A
C2140     Br2145   1.929       .  S
C2141      C2142   1.415       .  A
C2142     Br2143   1.936       .  S
C2147      C2148   1.413       .  A
C2147      C2152   1.407       .  A
C2147     Br2154   1.939       .  S
C2148      C2149   1.417       .  A
C2149      C2150   1.417       .  A
C2149     Br2156   1.923       .  S
C2150      C2151   1.420       .  A
C2150     Br2155   1.936       .  S
C2151      C2152   1.422       .  A
C2152     Br2153   1.936       .  S
C2157      C2158   1.405       .  A
C2157      C2162   1.387       .  A
C2157     Br2164   1.912       .  S
C2158      C2159   1.405       .  A
C2159      C2160   1.410       .  A
C2159     Br2166   1.922       .  S
C2160      C2161   1.411       .  A
C2160     Br2165   1.913       .  S
C2161      C2162   1.395       .  A
C2162     Br2163   1.916       .  S
C2167      C2168   1.420       .  A
C2167      C2172   1.412   1_556  A
C2167     Br2174   1.930       .  S
C2168      C2169   1.427       .  A
C2169      C2170   1.411   1_556  A
C2169     Br2176   1.935       .  S
C2170      C2171   1.405       .  A
C2171      C2172   1.416       .  A
C2172     Br2173   1.933       .  S
C2177      C2178   1.415       .  A
C2177      C2182   1.409       .  A
C2177     Br2184   1.931       .  S
C2178      C2179   1.425       .  A
C2179      C2180   1.413       .  A
C2180      C2181   1.403       .  A
C2180     Br2185   1.932       .  S
C2181      C2182   1.412       .  A
C2182     Br2183   1.932       .  S
C2187      C2188   1.407       .  A
C2187      C2192   1.398       .  A
C2187     Br2194   1.903       .  S
C2188      C2189   1.408       .  A
C2189      C2190   1.416       .  A
C2189     Br2196   1.927       .  S
C2190      C2191   1.418       .  A
C2190     Br2195   1.917       .  S
C2191      C2192   1.406       .  A
C2192     Br2193   1.936   1_556  S
C2197      C2198   1.415       .  A
C2197      C2202   1.420       .  A
C2197     Br2204   1.932       .  S
C2198      C2199   1.421       .  A
C2199      C2200   1.406       .  A
C2199     Br2206   1.945       .  S
C2200      C2201   1.416       .  A
C2200     Br2205   1.926       .  S
C2201      C2202   1.424       .  A
C2202     Br2203   1.931       .  S
C2207      C2208   1.401       .  A
C2207      C2212   1.394       .  A
C2207     Br2214   1.918       .  S
C2208      C2209   1.406       .  A
C2209      C2210   1.389       .  A
C2210      C2211   1.403       .  A
C2211      C2212   1.405       .  A
C2212     Br2213   1.919       .  S
C2217      C2218   1.414       .  A
C2217      C2222   1.411       .  A
C2217     Br2224   1.913       .  S
C2218      C2219   1.406       .  A
C2219      C2220   1.416       .  A
C2219     Br2226   1.935   1_565  S
C2220      C2221   1.432       .  A
C2220     Br2225   1.936       .  S
C2221      C2222   1.413       .  A
C2222     Br2223   1.939       .  S
C2227      C2228   1.416       .  A
C2227      C2232   1.407       .  A
C2227     Br2234   1.913       .  S
C2228      C2229   1.402       .  A
C2229      C2230   1.409       .  A
C2229     Br2236   1.930       .  S
C2230      C2231   1.416       .  A
C2230     Br2235   1.907       .  S
C2231      C2232   1.401       .  A
C2232     Br2233   1.932       .  S
C2237      C2238   1.399       .  A
C2237      C2242   1.401       .  A
C2238      C2239   1.417       .  A
C2239      C2240   1.402       .  A
C2239     Br2246   1.938       .  S
C2240      C2241   1.415       .  A
C2240     Br2245   1.938   1_565  S
C2241      C2242   1.419       .  A
C2247      C2248   1.410       .  A
C2247      C2252   1.399       .  A
C2247     Br2254   1.927       .  S
C2248      C2249   1.411       .  A
C2249      C2250   1.414       .  A
C2249     Br2256   1.931       .  S
C2250      C2251   1.421       .  A
C2250     Br2255   1.931       .  S
C2251      C2252   1.411       .  A
C2252     Br2253   1.934       .  S
