geometry optimzed in LAMMPS
_audit_creation_date              2020-11-30 
_audit_creation_method            'lammps2cif' 
_symmetry_space_group_name_H-M    'P1' 
_symmetry_Int_Tables_number       1 
_symmetry_cell_setting            triclinic 
loop_ 
_symmetry_equiv_pos_as_xyz 
  x,y,z 
_cell_length_a                    25.80937415 
_cell_length_b                    26.564071936896692 
_cell_length_c                    42.23648582511496 
_cell_angle_alpha                 90.16334743019127 
_cell_angle_beta                  89.3423323029402 
_cell_angle_gamma                 119.78298489725552 
loop_ 
_atom_site_label 
_atom_site_type_symbol 
_atom_site_fract_x 
_atom_site_fract_y 
_atom_site_fract_z 
_atom_site_charge 
C1          C  0.11486952  0.10517799  0.13743706     0.79900
N2          N  0.10172671  0.14164371  0.15396555    -0.78400
C3          C  0.12841399  0.16425033  0.18174456     0.82300
N4          N  0.17049332  0.15236828  0.19120990    -0.78400
C5          C  0.17674590  0.10888355  0.17918895     0.82400
N6          N  0.14927137  0.08516547  0.15121260    -0.80100
C7          C  0.22754565  0.04570091  0.24796067     0.45100
H8          H  0.22657270  0.04574264  0.27421177    -0.03900
C9          C  0.23018333  0.04572555  0.18628005     0.45200
H10         H  0.23105886  0.04560493  0.15997129    -0.03900
C11         C  0.29092443  0.07104665  0.23411080    -0.17600
C12         C  0.19047790  0.98502296  0.23393436    -0.17400
C13         C  0.20261770  0.08182323  0.23369184    -0.17700
C14         C  0.29258157  0.07155274  0.20079659    -0.17700
C15         C  0.19483441  0.98462602  0.20089589    -0.17300
C16         C  0.20298656  0.08148764  0.20030425    -0.17600
C17         C  0.06560655  0.21547359  0.18973590     0.45100
H18         H  0.06660138  0.21621047  0.16344952    -0.03900
C19         C  0.06261647  0.21418244  0.25137295     0.45200
H20         H  0.06142782  0.21368301  0.27767659    -0.03900
C21         C  0.09078920  0.27589921  0.20420599    -0.17600
C22         C  0.00211820  0.17810313  0.20351568    -0.17400
C23         C  0.10316316  0.19139365  0.20397112    -0.17700
C24         C  0.08593513  0.27520088  0.23724364    -0.17700
C25         C  0.00081124  0.17707403  0.23673795    -0.17300
C26         C  0.10192689  0.19072686  0.23729337    -0.17600
C27         C  0.40016247  0.16788449  0.13870661     0.79900
N28         N  0.34716178  0.12843250  0.15249639    -0.78400
C29         C  0.34733199  0.10129229  0.17970154     0.82300
N30         N  0.40033201  0.11216543  0.19099751    -0.78400
C31         C  0.45229738  0.15765634  0.18139779     0.82400
N32         N  0.45249577  0.18490891  0.15423267    -0.80100
C33         C  0.13847929  0.37879361  0.13518225     0.79900
N34         N  0.16138308  0.43000110  0.15163997    -0.78400
C35         C  0.16817048  0.43004577  0.18351893     0.82300
N36         N  0.15559216  0.38011550  0.19747226    -0.78400
C37         C  0.12217167  0.32878075  0.18363802     0.82400
N38         N  0.11557817  0.32776106  0.15172995    -0.80100
C39         C  0.38893510  0.16257426  0.29935485     0.79900
N40         N  0.44388234  0.18136952  0.28553190    -0.78400
C41         C  0.44768553  0.15711267  0.25776069     0.82300
N42         N  0.39742829  0.11343255  0.24604794    -0.78400
C43         C  0.34294896  0.10065326  0.25609216     0.82400
N44         N  0.33852282  0.12439656  0.28368567    -0.80100
C45         C  0.15479691  0.37996319  0.30335561     0.79900
N46         N  0.17027225  0.43029636  0.28767966    -0.78400
C47         C  0.14923397  0.42901608  0.25830868     0.82300
N48         N  0.10902052  0.37678385  0.24628952    -0.78400
C49         C  0.10278439  0.32684730  0.25850911     0.82400
N50         N  0.12419511  0.32834428  0.28794521    -0.80100
C51         C  0.11940121  0.10258921  0.30128336     0.79900
N52         N  0.15296719  0.08445901  0.28462163    -0.78400
C53         C  0.17636383  0.10817477  0.25593578     0.82300
N54         N  0.16832376  0.15143043  0.24594983    -0.78400
C55         C  0.12738673  0.16279861  0.25833388     0.82400
N56         N  0.10282855  0.13859636  0.28688843    -0.80100
Zn57       Zn  0.36280692  0.36454679  0.51600292     1.49700
Zn58       Zn  0.44227698  0.36821531  0.45780874     1.49400
Zn59       Zn  0.29792522  0.30123789  0.45519660     1.49100
Zn60       Zn  0.37393129  0.44168933  0.45890275     1.49500
O61         O  0.36929078  0.36868519  0.47122457    -1.84500
O62         O  0.43733769  0.37785765  0.53421232    -0.75100
O63         O  0.42170092  0.29629571  0.43186923    -0.74900
O64         O  0.24555798  0.24389005  0.48945996    -0.74500
O65         O  0.49687600  0.37931493  0.49535451    -0.75100
O66         O  0.29817775  0.28947819  0.53187603    -0.74700
O67         O  0.32426569  0.26059921  0.42502263    -0.75300
O68         O  0.30185787  0.42374701  0.43349062    -0.74700
O69         O  0.48589764  0.43182286  0.42562424    -0.75500
O70         O  0.25089434  0.32742539  0.42881508    -0.74900
O71         O  0.43984228  0.48355988  0.42669917    -0.75300
O72         O  0.38153494  0.49340952  0.49677597    -0.75200
O73         O  0.35110516  0.42634545  0.53450359    -0.75000
C74         C  0.48643785  0.38318487  0.52463133     0.76800
C75         C  0.37306518  0.26203133  0.41795926     0.77300
C76         C  0.25385654  0.24664481  0.51922232     0.76200
C77         C  0.25962488  0.37763667  0.42161623     0.76600
C78         C  0.47829319  0.47221084  0.41460288     0.77700
C79         C  0.36586396  0.47721705  0.52538874     0.76800
Zn80       Zn  0.44705055  0.45731228  0.96027490     1.49700
Zn81       Zn  0.30234407  0.38489030  0.95580622     1.49400
Zn82       Zn  0.38027293  0.31941085  0.96106025     1.49100
Zn83       Zn  0.36837413  0.39161850  0.01831190     1.49500
O84         O  0.37386029  0.38766525  0.97335387    -1.84500
O85         O  0.42638164  0.50612599  0.93357760    -0.75100
O86         O  0.26152548  0.31564793  0.92736025    -0.74900
O87         O  0.44971104  0.34214520  0.92994952    -0.74500
O88         O  0.32813422  0.45367042  0.92683907    -0.75100
O89         O  0.49480704  0.43776439  0.93040933    -0.74700
O90         O  0.30898746  0.26595876  0.93481287    -0.75300
O91         O  0.37630374  0.32926069  0.03823684    -0.74700
O92         O  0.24315101  0.38242712  0.98962513    -0.75500
O93         O  0.38869263  0.27818945  0.00009492    -0.74900
O94         O  0.29296699  0.38654411  0.03298908    -0.75300
O95         O  0.43415408  0.46381892  0.03598674    -0.75200
O96         O  0.49925358  0.50491795  0.99649857    -0.75000
C97         C  0.37875572  0.49755856  0.92021416     0.76800
C98         C  0.26895364  0.27269229  0.92117911     0.77300
C99         C  0.48996872  0.39123511  0.91930781     0.76200
C100        C  0.38555156  0.28869045  0.02938849     0.76600
C101        C  0.24787592  0.38384220  0.01967753     0.77700
C102        C  0.48449627  0.50266896  0.02550019     0.76800
C103        C  0.39236454  0.12176982  0.63511681     0.79900
N104        N  0.34117517  0.10023228  0.65297157    -0.78400
C105        C  0.34377516  0.10306594  0.68484169     0.82300
N106        N  0.39712041  0.12588433  0.69800746    -0.78400
C107        C  0.44815777  0.15724261  0.68222001     0.82400
N108        N  0.44683772  0.15340117  0.64983513    -0.80100
C109        C  0.39768032  0.11655148  0.80207097     0.79900
N110        N  0.44932954  0.15306927  0.78617385    -0.78400
C111        C  0.44719864  0.17547470  0.75758847     0.82300
N112        N  0.39331709  0.16517210  0.74723243    -0.78400
C113        C  0.34235008  0.12022168  0.75917088     0.82400
N114        N  0.34449779  0.09720509  0.78733558    -0.80100
C115        C  0.22813335  0.05198900  0.69107285     0.45100
H116        H  0.22895600  0.05136639  0.66478482    -0.03900
C117        C  0.22536625  0.05319264  0.75278499     0.45200
H118        H  0.22452606  0.05380923  0.77908927    -0.03900
C119        C  0.19960868  0.99136546  0.70589449    -0.17600
C120        C  0.28996758  0.08386709  0.70553264    -0.17400
C121        C  0.19496584  0.08200278  0.70457486    -0.17700
C122        C  0.19830702  0.99163847  0.73914993    -0.17700
C123        C  0.28890467  0.08809412  0.73846158    -0.17300
C124        C  0.19005208  0.07918831  0.73771621    -0.17600
C125        C  0.06043683  0.22240862  0.74990442     0.45100
H126        H  0.05882672  0.22197692  0.77619371    -0.03900
C127        C  0.06491329  0.22304607  0.68813858     0.45200
H128        H  0.06665561  0.22329742  0.66184400    -0.03900
C129        C  0.99869277  0.19555566  0.73500518    -0.17600
C130        C  0.09497421  0.28366598  0.73597725    -0.17400
C131        C  0.08960880  0.18860648  0.73625665    -0.17700
C132        C  0.00065192  0.19244582  0.70172387    -0.17700
C133        C  0.09744861  0.28437056  0.70259672    -0.17300
C134        C  0.09476708  0.19169834  0.70323406    -0.17600
C135        C  0.11046395  0.38865185  0.63949173     0.79900
N136        N  0.09610991  0.33705041  0.65371669    -0.78400
C137        C  0.12321375  0.33714480  0.68114163     0.82300
N138        N  0.16637654  0.38855646  0.69199765    -0.78400
C139        C  0.17249874  0.43940363  0.68218317     0.82400
N140        N  0.14581626  0.43959976  0.65480672    -0.80100
C141        C  0.14997703  0.13958670  0.63488461     0.79900
N142        N  0.17487070  0.11250134  0.65137808    -0.78400
C143        C  0.17810706  0.11700531  0.68355025     0.82300
N144        N  0.16176700  0.15218532  0.69749678    -0.78400
C145        C  0.12819333  0.17039253  0.68324804     0.82400
N146        N  0.12308562  0.16511049  0.65137894    -0.80100
C147        C  0.17073359  0.16505335  0.80156917     0.79900
N148        N  0.18496599  0.12771409  0.78691141    -0.78400
C149        C  0.16036815  0.10375704  0.75870315     0.82300
N150        N  0.11742311  0.11355018  0.74716619    -0.78400
C151        C  0.11157561  0.15860017  0.75796053     0.82400
N152        N  0.13694107  0.18321538  0.78597948    -0.80100
C153        C  0.10710880  0.38336247  0.80276619     0.79900
N154        N  0.09144266  0.33295801  0.78659794    -0.78400
C155        C  0.11649698  0.33512193  0.75773559     0.82300
N156        N  0.15681935  0.38694380  0.74661638    -0.80000
C157        C  0.16642819  0.43706226  0.75872207     0.82400
N158        N  0.14217912  0.43562427  0.78769201    -0.80100
C159        C  0.19472550  0.18875689  0.83327292    -0.06500
C160        C  0.16074229  0.20334013  0.85364366    -0.17600
C161        C  0.18076982  0.22586075  0.88388693     0.10700
C162        C  0.23652610  0.23457142  0.89426053    -0.06400
C163        C  0.26882305  0.21699499  0.87459648    -0.17600
C164        C  0.24970392  0.19603292  0.84413139     0.10700
S165        S  0.13292995  0.24215161  0.90803462    -0.32600
S166        S  0.30156497  0.18655577  0.81943485    -0.32600
H167        H  0.29373227  0.21360445  0.79275868     0.28800
H168        H  0.15164345  0.23101458  0.93704636     0.28800
H169        H  0.11808280  0.19719987  0.84599677     0.19300
H170        H  0.31234450  0.22468447  0.88178911     0.19300
C171        C  0.02729020  0.38754531  0.89333802    -0.06500
C172        C  0.01783287  0.33432402  0.88106374    -0.17600
C173        C  0.04585008  0.33121820  0.85304632     0.10700
C174        C  0.08265627  0.38252845  0.83535952    -0.06400
C175        C  0.09571886  0.43594126  0.84899346    -0.17600
C176        C  0.06965350  0.43935990  0.87768226     0.10700
S177        S  0.03266873  0.26020406  0.84208140    -0.32600
S178        S  0.09125163  0.51083003  0.89305252    -0.32600
H179        H  0.13543647  0.54376976  0.87027370     0.28800
H180        H  0.09357433  0.27929552  0.83662881     0.28800
H181        H  0.50131668  0.30303770  0.89532929     0.19300
H182        H  0.12576974  0.47580320  0.83676131     0.19300
C183        C  0.39808344  0.09362534  0.83400575    -0.06500
C184        C  0.34876062  0.07858973  0.85429562    -0.17600
C185        C  0.34384013  0.05291540  0.88390082     0.10700
C186        C  0.38936332  0.04197706  0.89382998    -0.06400
C187        C  0.44048679  0.06067623  0.87454691    -0.17600
C188        C  0.44461636  0.08463291  0.84460036     0.10700
S189        S  0.27842505  0.03507374  0.90768566    -0.32600
S190        S  0.50670488  0.09533168  0.81997452    -0.32600
H191        H  0.47157137  0.06842561  0.79326839     0.28800
H192        H  0.30258488  0.53688205  0.93623547     0.28800
H193        H  0.31310407  0.08602972  0.84688483     0.19300
H194        H  0.47120612  0.54668399  0.88085856     0.19300
C195        C  0.20910314  0.20372106  0.54092325    -0.06500
C196        C  0.21479442  0.15661539  0.55123555    -0.17600
C197        C  0.18940226  0.12888949  0.58034493     0.10700
C198        C  0.16013652  0.15080169  0.60000607    -0.06400
C199        C  0.14910100  0.19354170  0.58734813    -0.17600
C200        C  0.17289105  0.21969782  0.55825658     0.10700
S201        S  0.19696286  0.06764619  0.59206827    -0.32600
S202        S  0.16390690  0.28014987  0.54680033    -0.32600
H203        H  0.16771556  0.27319621  0.51398884     0.28800
H204        H  0.21946756  0.06068768  0.56291447     0.28800
H205        H  0.24280173  0.14453318  0.53770842     0.19300
H206        H  0.12633412  0.21099972  0.60128737     0.19300
C207        C  0.37183458  0.03741590  0.54516785    -0.06500
C208        C  0.42676153  0.08698031  0.55189319    -0.17600
C209        C  0.43394316  0.11988454  0.57941309     0.10700
C210        C  0.38604404  0.10151002  0.60140719    -0.06400
C211        C  0.32983776  0.05520561  0.59247848    -0.17600
C212        C  0.31976108  0.49846368  0.57207748     0.10700
S213        S  0.50492212  0.18388556  0.58521219    -0.32600
S214        S  0.24758167  0.43488461  0.56640396    -0.32600
H215        H  0.24984663  0.43667017  0.53311189     0.28800
H216        H  0.48045344  0.21636376  0.59834982     0.28800
H217        H  0.46505094  0.09839456  0.53654658     0.19300
H218        H  0.29132000  0.04027974  0.60805642     0.19300
C219        C  0.02577593  0.38636939  0.55242918    -0.06500
C220        C  0.02933660  0.42348694  0.57703959    -0.17600
C221        C  0.05578841  0.42441566  0.60570551     0.10700
C222        C  0.08207849  0.38925680  0.60959753    -0.06400
C223        C  0.08132610  0.35424033  0.58434974    -0.17600
C224        C  0.05271994  0.35192426  0.55588378     0.10700
S225        S  0.04909003  0.46711342  0.63715468    -0.32600
S226        S  0.04874420  0.30242284  0.52550574    -0.32600
H227        H  0.47539536  0.27903009  0.52327448     0.28800
H228        H  0.03666937  0.42571477  0.66106278     0.28800
H229        H  0.00753066  0.44925701  0.57464791     0.19300
H230        H  0.10177484  0.32741268  0.58720388     0.19300
C231        C  0.03991027  0.01894615  0.39036922    -0.06500
C232        C  0.04851123  0.07449172  0.38388111    -0.17600
C233        C  0.07701260  0.10439778  0.35602509     0.10700
C234        C  0.09593122  0.07755776  0.33319645    -0.06400
C235        C  0.09066158  0.02363371  0.34062776    -0.17600
C236        C  0.06270241  0.99396354  0.36851322     0.10700
S237        S  0.08899980  0.17699002  0.35179123    -0.32600
S238        S  0.51256978  0.40354827  0.36319879    -0.32600
H239        H  0.45239900  0.38155180  0.37213353     0.28800
H240        H  0.14659774  0.19970942  0.33850468     0.28800
H241        H  0.03246793  0.09480655  0.40063153     0.19300
H242        H  0.10556988  0.00250356  0.32377897     0.19300
C243        C  0.22737013  0.38367889  0.39468618    -0.06500
C244        C  0.26320889  0.42232930  0.37078974    -0.17600
C245        C  0.24091135  0.42086385  0.34076886     0.10700
C246        C  0.18009435  0.38221269  0.33468842    -0.06400
C247        C  0.14312930  0.34535136  0.35898658    -0.17600
C248        C  0.16620656  0.34563800  0.38896212     0.10700
S249        S  0.29420928  0.46483522  0.31048561    -0.32600
S250        S  0.11567884  0.29734663  0.41886712    -0.32600
H251        H  0.14902213  0.32996522  0.44493520     0.28800
H252        H  0.26960410  0.42262374  0.28658686     0.28800
H253        H  0.31056985  0.45051425  0.37459237     0.19300
H254        H  0.09621755  0.31613846  0.35454890     0.19300
C255        C  0.38331097  0.18587136  0.33017587    -0.06500
C256        C  0.41987373  0.18860926  0.35528858    -0.17600
C257        C  0.41523716  0.20953841  0.38520764     0.10700
C258        C  0.37373664  0.22892469  0.38984826    -0.06400
C259        C  0.33574702  0.22383757  0.36498087    -0.17600
C260        C  0.34022120  0.20307628  0.33529948     0.10700
S261        S  0.46060654  0.20930070  0.41737354    -0.32600
S262        S  0.29460203  0.20463697  0.30353732    -0.32600
H263        H  0.25469421  0.21362884  0.32244195     0.28800
H264        H  0.48678706  0.18116982  0.40102701     0.28800
H265        H  0.45178695  0.17385805  0.35143077     0.19300
H266        H  0.30460248  0.23969465  0.36816309     0.19300
C267        C  0.20274168  0.38508785  0.04072232    -0.06500
C268        C  0.15553472  0.33241308  0.05193123    -0.17600
C269        C  0.12740238  0.32928495  0.08123766     0.10700
C270        C  0.14866363  0.38007675  0.10013642    -0.06400
C271        C  0.19063534  0.43353283  0.08652285    -0.17600
C272        C  0.21737358  0.43645244  0.05718110     0.10700
S273        S  0.06743460  0.25956651  0.09439234    -0.32600
S274        S  0.27627721  0.50629137  0.04396176    -0.32600
H275        H  0.27106636  0.49227442  0.01158245     0.28800
H276        H  0.06042369  0.22974273  0.06576575     0.28800
H277        H  0.14442018  0.29304390  0.03912838     0.19300
H278        H  0.20732509  0.47318441  0.09994236     0.19300
C279        C  0.39423778  0.25566228  0.05479558    -0.06500
C280        C  0.42666649  0.28730041  0.08124385    -0.17600
C281        C  0.42918136  0.25977317  0.10869538     0.10700
C282        C  0.40001930  0.19866662  0.10978360    -0.06400
C283        C  0.36955277  0.16667597  0.08289470    -0.17600
C284        C  0.36642937  0.19463138  0.05538703     0.10700
S285        S  0.46745663  0.30539039  0.14203210    -0.32600
S286        S  0.32457692  0.15075284  0.02242674    -0.32600
H287        H  0.29393599  0.18130381  0.01704510     0.28800
H288        H  0.42564735  0.26891178  0.16490042     0.28800
H289        H  0.44843650  0.33429107  0.08100954     0.19300
H290        H  0.34719751  0.11968203  0.08354718     0.19300
C291        C  0.01881402  0.03812860  0.05089465    -0.06500
C292        C  0.07565173  0.04377722  0.05367716    -0.17600
C293        C  0.10957776  0.06750441  0.08106853     0.10700
C294        C  0.08484536  0.08328305  0.10671054    -0.06400
C295        C  0.02956796  0.08076614  0.10270036    -0.17600
C296        C  0.50346537  0.06596258  0.07269163     0.10700
S297        S  0.18407682  0.07793999  0.08142263    -0.32600
S298        S  0.44243539  0.58056670  0.06210819    -0.32600
H299        H  0.44267900  0.57476332  0.02900594     0.28800
H300        H  0.20920138  0.13115020  0.09761271     0.28800
H301        H  0.09278115  0.02782774  0.03497046     0.19300
H302        H  0.01044751  0.09455570  0.12148166     0.19300
C303        C  0.11043960  0.60544512  0.13849427     0.79900
N304        N  0.09643185  0.64186809  0.15463886    -0.78400
C305        C  0.11959472  0.66183524  0.18354701     0.82300
N306        N  0.15830848  0.64714643  0.19462132    -0.78400
C307        C  0.16574318  0.60475976  0.18247803     0.82400
N308        N  0.14209160  0.58358913  0.15348551    -0.80100
C309        C  0.21660866  0.54284255  0.25157726     0.45100
H310        H  0.21548152  0.54274429  0.27786108    -0.03900
C311        C  0.21991598  0.54341877  0.18982098     0.45200
H312        H  0.22112073  0.54368109  0.16350986    -0.03900
C313        C  0.28068028  0.57052686  0.23782955    -0.17600
C314        C  0.18113126  0.48174062  0.23707019    -0.17400
C315        C  0.18978742  0.57741416  0.23712100    -0.17700
C316        C  0.28207895  0.57085227  0.20441600    -0.17700
C317        C  0.18609851  0.48221036  0.20402807    -0.17300
C318        C  0.19103576  0.57728738  0.20378659    -0.17600
C319        C  0.06078013  0.71703133  0.19008206     0.45100
H320        H  0.06162882  0.71649879  0.16380364    -0.03900
C321        C  0.05790003  0.71836572  0.25177037     0.45200
H322        H  0.05670179  0.71896672  0.27807209    -0.03900
C323        C  0.08899371  0.77822646  0.20363598    -0.17600
C324        C  0.99726346  0.68273690  0.20408382    -0.17400
C325        C  0.09550831  0.69072141  0.20502033    -0.17700
C326        C  0.08427485  0.77901369  0.23664934    -0.17700
C327        C  0.99586341  0.68323845  0.23737683    -0.17300
C328        C  0.09433111  0.69124281  0.23837175    -0.17600
C329        C  0.38730472  0.66692434  0.14125656     0.79900
N330        N  0.33485252  0.62851472  0.15593693    -0.78400
C331        C  0.33602950  0.60087428  0.18275956     0.82300
N332        N  0.38923819  0.60990571  0.19265350    -0.78400
C333        C  0.44112313  0.65449189  0.18225208     0.82400
N334        N  0.44037851  0.68233868  0.15554206    -0.80100
C335        C  0.13913202  0.87867488  0.13333976     0.79900
N336        N  0.16578215  0.93057306  0.14920248    -0.78400
C337        C  0.17431027  0.93141825  0.18092731     0.82300
N338        N  0.15957744  0.88123751  0.19538995    -0.78400
C339        C  0.12272002  0.82992030  0.18230637     0.82400
N340        N  0.11443124  0.82814912  0.15049047    -0.80100
C341        C  0.38605117  0.66119909  0.30228964     0.79900
N342        N  0.43885638  0.67849694  0.28654952    -0.78400
C343        C  0.43931208  0.65408722  0.25843521     0.82300
N344        N  0.38734699  0.61148574  0.24771986    -0.78400
C345        C  0.33416512  0.60015623  0.25930918     0.82400
N346        N  0.33311173  0.62462442  0.28759708    -0.80100
C347        C  0.15501115  0.88412354  0.30247325     0.79900
N348        N  0.17568439  0.93435820  0.28563581    -0.78400
C349        C  0.15668725  0.93349222  0.25567084     0.82300
N350        N  0.11420612  0.88228846  0.24394900    -0.78400
C351        C  0.10370094  0.83172518  0.25709551     0.82400
N352        N  0.12247236  0.83265034  0.28707070    -0.80100
C353        C  0.09729703  0.59366625  0.30138286     0.79900
N354        N  0.13114445  0.57513850  0.28540600    -0.78400
C355        C  0.16142993  0.60282239  0.25867489     0.82300
N356        N  0.15867667  0.64975649  0.24951200    -0.78400
C357        C  0.11617084  0.66083073  0.26013564     0.82400
N358        N  0.08627118  0.63378991  0.28721664    -0.80100
Zn359      Zn  0.36104096  0.87664736  0.51714485     1.49700
Zn360      Zn  0.44619417  0.88206167  0.45978694     1.49400
Zn361      Zn  0.30276520  0.80583904  0.45628364     1.49100
Zn362      Zn  0.37015686  0.94752835  0.45796964     1.49500
O363        O  0.37018766  0.87760278  0.47226479    -1.84500
O364        O  0.43155108  0.88210462  0.53629975    -0.75100
O365        O  0.43127639  0.81388662  0.43240516    -0.74900
O366        O  0.25127825  0.74775758  0.49141229    -0.74500
O367        O  0.49540388  0.88784378  0.49866963    -0.75100
O368        O  0.29208616  0.80411677  0.53321545    -0.74700
O369        O  0.33298915  0.76811124  0.42559920    -0.75300
O370        O  0.29557707  0.92378842  0.43324544    -0.74700
O371        O  0.49221151  0.94872737  0.42892619    -0.75500
O372        O  0.25343245  0.82804060  0.42932777    -0.74900
O373        O  0.43536259  0.98919106  0.42607662    -0.75300
O374        O  0.37961382  0.00426614  0.49336452    -0.75200
O375        O  0.35717791  0.94463979  0.53429647    -0.75000
C376        C  0.48102168  0.88696890  0.52777365     0.76800
C377        C  0.38460628  0.77629409  0.41827413     0.77300
C378        C  0.25328720  0.75646863  0.52121864     0.76200
C379        C  0.25588081  0.87558692  0.42178833     0.76600
C380        C  0.47946854  0.98464933  0.41617774     0.77700
C381        C  0.36957543  0.99356791  0.52285845     0.76800
Zn382      Zn  0.44532837  0.95723963  0.96085806     1.49700
Zn383      Zn  0.30159192  0.88798038  0.95421732     1.49400
Zn384      Zn  0.37498901  0.81837669  0.96168441     1.49100
Zn385      Zn  0.36360266  0.89165987  0.01802878     1.49500
O386        O  0.37076735  0.88822347  0.97320275    -1.84500
O387        O  0.42804296  0.00942618  0.93444022    -0.75100
O388        O  0.26125504  0.81905708  0.92553040    -0.74900
O389        O  0.44382670  0.83979954  0.93025877    -0.74500
O390        O  0.33031799  0.95833672  0.92576335    -0.75100
O391        O  0.49017435  0.93556044  0.93035626    -0.74700
O392        O  0.30317263  0.76523278  0.93588056    -0.75300
O393        O  0.36806655  0.82776198  0.03855756    -0.74700
O394        O  0.24055294  0.88447374  0.98714024    -0.75500
O395        O  0.38083117  0.77586327  0.00107180    -0.74900
O396        O  0.28789194  0.88748006  0.03134051    -0.75300
O397        O  0.43059532  0.96235517  0.03637652    -0.75200
O398        O  0.49837540  0.00194722  0.99792386    -0.75000
C399        C  0.38158694  0.00229224  0.92027818     0.76800
C400        C  0.26566488  0.77392153  0.92092316     0.77300
C401        C  0.48416700  0.88859735  0.91924163     0.76200
C402        C  0.37632993  0.78637492  0.03021912     0.76600
C403        C  0.24343171  0.88479012  0.01727413     0.77700
C404        C  0.48240119  0.99975143  0.02675685     0.76800
C405        C  0.38769305  0.60696698  0.63849344     0.79900
N406        N  0.33585734  0.59081708  0.65484278    -0.78400
C407        C  0.33640199  0.61551351  0.68283580     0.82300
N408        N  0.38861972  0.65853197  0.69285487    -0.78400
C409        C  0.44122615  0.66858772  0.68105994     0.82400
N410        N  0.44131327  0.64312154  0.65282232    -0.80100
C411        C  0.38985603  0.60611574  0.80090309     0.79900
N412        N  0.44196308  0.64415424  0.78570131    -0.78400
C413        C  0.44009642  0.66879665  0.75789941     0.82300
N414        N  0.38666765  0.65801788  0.74777032    -0.78400
C415        C  0.33532118  0.61412676  0.75888810     0.82400
N416        N  0.33656085  0.58848180  0.78632705    -0.80100
C417        C  0.22142184  0.55224335  0.69032590     0.45100
H418        H  0.22220285  0.55285215  0.66402372    -0.03900
C419        C  0.21879110  0.55049223  0.75202165     0.45200
H420        H  0.21806085  0.54989495  0.77833312    -0.03900
C421        C  0.19661574  0.49088350  0.70430849    -0.17600
C422        C  0.28304067  0.58869750  0.70464780    -0.17400
C423        C  0.18515645  0.57819609  0.70456273    -0.17700
C424        C  0.19459758  0.49002770  0.73762037    -0.17700
C425        C  0.28199889  0.58787422  0.73785751    -0.17300
C426        C  0.18117726  0.57485176  0.73781016    -0.17600
C427        C  0.05820752  0.72357922  0.75270993     0.45100
H428        H  0.05700960  0.72278996  0.77901257    -0.03900
C429        C  0.06152593  0.72539354  0.69097223     0.45200
H430        H  0.06280646  0.72609798  0.66466074    -0.03900
C431        C  0.99631858  0.69841103  0.73809687    -0.17600
C432        C  0.09466234  0.78513309  0.73886308    -0.17400
C433        C  0.08462522  0.68784914  0.73838474    -0.17700
C434        C  0.99797735  0.69878722  0.70476132    -0.17700
C435        C  0.09631814  0.78577483  0.70555446    -0.17300
C436        C  0.08878849  0.69120831  0.70536483    -0.17600
C437        C  0.10904106  0.88932397  0.64243524     0.79900
N438        N  0.09395664  0.83776488  0.65685547    -0.78400
C439        C  0.12141934  0.83785760  0.68415618     0.82300
N440        N  0.16503969  0.88873745  0.69484679    -0.78400
C441        C  0.17279164  0.93965613  0.68451905     0.82400
N442        N  0.14607515  0.94021793  0.65726922    -0.80100
C443        C  0.14348516  0.64112606  0.63581376     0.79900
N444        N  0.16663451  0.61181387  0.65177591    -0.78400
C445        C  0.16809924  0.61360287  0.68407972     0.82300
N446        N  0.15196899  0.64820139  0.69865257    -0.78400
C447        C  0.12037855  0.66886210  0.68481968     0.82400
N448        N  0.11676625  0.66629124  0.65284389    -0.80100
C449        C  0.16558393  0.66172502  0.80261805     0.79900
N450        N  0.17838761  0.62351498  0.78770291    -0.78400
C451        C  0.15252815  0.59965553  0.75960867     0.82300
N452        N  0.10985423  0.61048337  0.74866926    -0.78400
C453        C  0.10592010  0.65656197  0.75957708     0.82400
N454        N  0.13255888  0.68098859  0.78729998    -0.80100
C455        C  0.10276334  0.88703309  0.80293439     0.79900
N456        N  0.08800193  0.83622239  0.78758809    -0.78400
C457        C  0.11690475  0.83709233  0.76031974     0.82300
N458        N  0.16062446  0.88843835  0.74990923    -0.80000
C459        C  0.16845800  0.93917674  0.76060212     0.82400
N460        N  0.14031408  0.93873267  0.78807248    -0.80100
C461        C  0.18957398  0.68526193  0.83438208    -0.06500
C462        C  0.15737606  0.70375459  0.85366176    -0.17600
C463        C  0.17804356  0.72836631  0.88341271     0.10700
C464        C  0.23232240  0.73466636  0.89460442    -0.06400
C465        C  0.26240963  0.71269484  0.87632349    -0.17600
C466        C  0.24293407  0.68998960  0.84613902     0.10700
S467        S  0.13322197  0.75114008  0.90566293    -0.32600
S468        S  0.29270920  0.67528361  0.82280324    -0.32600
H469        H  0.28900766  0.70375178  0.79559310     0.28800
H470        H  0.14973858  0.74093096  0.93556228     0.28800
H471        H  0.11588705  0.69962142  0.84541992     0.19300
H472        H  0.30476334  0.71836284  0.88421634     0.19300
C473        C  0.01971972  0.89304305  0.89195699    -0.06500
C474        C  0.01399465  0.84033685  0.88126462    -0.17600
C475        C  0.04168444  0.83675127  0.85332352     0.10700
C476        C  0.07528632  0.88709612  0.83436542    -0.06400
C477        C  0.08308634  0.94021121  0.84578199    -0.17600
C478        C  0.05629129  0.94414206  0.87404408     0.10700
S479        S  0.03245281  0.76641544  0.84418415    -0.32600
S480        S  0.06920520  0.01515536  0.88576415    -0.32600
H481        H  0.09705340  0.04524531  0.85765335     0.28800
H482        H  0.09390897  0.78797945  0.83904163     0.28800
H483        H  0.48605217  0.79800648  0.89190450     0.19300
H484        H  0.10991642  0.97942744  0.83219390     0.19300
C485        C  0.39016990  0.58256486  0.83258342    -0.06500
C486        C  0.34075322  0.56691042  0.85289779    -0.17600
C487        C  0.33747259  0.54355860  0.88298399     0.10700
C488        C  0.38445704  0.53510331  0.89317383    -0.06400
C489        C  0.43524610  0.55385756  0.87366165    -0.17600
C490        C  0.43804651  0.57591942  0.84341225     0.10700
S491        S  0.27267926  0.52615897  0.90721365    -0.32600
S492        S  0.50098448  0.58810305  0.81905729    -0.32600
H493        H  0.46657908  0.56096879  0.79217229     0.28800
H494        H  0.30673654  0.04238411  0.93697159     0.28800
H495        H  0.30414509  0.57274875  0.84533778     0.19300
H496        H  0.47532721  0.05165260  0.88152407     0.19300
C497        C  0.20858492  0.71354991  0.54334486    -0.06500
C498        C  0.21123349  0.66388876  0.55212262    -0.17600
C499        C  0.18490369  0.63435816  0.58083333     0.10700
C500        C  0.15635230  0.65600716  0.60129955    -0.06400
C501        C  0.14841758  0.70161673  0.59009836    -0.17600
C502        C  0.17403869  0.73022882  0.56178445     0.10700
S503        S  0.19003512  0.57092702  0.59108464    -0.32600
S504        S  0.16774911  0.79311121  0.55233747    -0.32600
H505        H  0.17184292  0.78864687  0.51930897     0.28800
H506        H  0.22300211  0.57118533  0.56427570     0.28800
H507        H  0.23760946  0.65098406  0.53772905     0.19300
H508        H  0.12614551  0.71899323  0.60458793     0.19300
C509        C  0.36681860  0.51738589  0.54979238    -0.06500
C510        C  0.42003810  0.56953723  0.55521399    -0.17600
C511        C  0.42818424  0.60125121  0.58324931     0.10700
C512        C  0.38290424  0.57930303  0.60699833    -0.06400
C513        C  0.32852246  0.52867003  0.60028326    -0.17600
C514        C  0.32223713  0.02379039  0.56478984     0.10700
S515        S  0.49670129  0.66912010  0.58684607    -0.32600
S516        S  0.24873816  0.96356365  0.55694261    -0.32600
H517        H  0.25604022  0.96496124  0.52383482     0.28800
H518        H  0.46884840  0.69922088  0.59901495     0.28800
H519        H  0.45636783  0.58447133  0.53811980     0.19300
H520        H  0.29202716  0.51126281  0.61733091     0.19300
C521        C  0.03038241  0.89247028  0.55427778    -0.06500
C522        C  0.03797023  0.93216685  0.57824873    -0.17600
C523        C  0.06085742  0.93021637  0.60751281     0.10700
C524        C  0.08120948  0.89046355  0.61248811    -0.06400
C525        C  0.07635383  0.85235777  0.58803596    -0.17600
C526        C  0.05028941  0.85237437  0.55908169     0.10700
S527        S  0.05650096  0.97528616  0.63832074    -0.32600
S528        S  0.03990414  0.79818990  0.53020230    -0.32600
H529        H  0.47263715  0.78440610  0.52138471     0.28800
H530        H  0.03971754  0.93332221  0.66239293     0.28800
H531        H  0.02166675  0.96236105  0.57495708     0.19300
H532        H  0.09136424  0.82139039  0.59189870     0.19300
C533        C  0.01186365  0.51862167  0.39189016    -0.06500
C534        C  0.05708348  0.50917193  0.37966854    -0.17600
C535        C  0.08593916  0.53309141  0.35096146     0.10700
C536        C  0.06996003  0.56836067  0.33301247    -0.06400
C537        C  0.02673863  0.58038277  0.34598197    -0.17600
C538        C  0.99740227  0.55601271  0.37489284     0.10700
S539        S  0.14277399  0.51607694  0.33949467    -0.32600
S540        S  0.42029986  0.03994355  0.37026617    -0.32600
H541        H  0.38902957  0.97898167  0.37238064     0.28800
H542        H  0.18562052  0.57476016  0.33462998     0.28800
H543        H  0.06968578  0.48147196  0.39229146     0.19300
H544        H  0.01504296  0.60858908  0.33325404     0.19300
C545        C  0.21714095  0.87648234  0.39614471    -0.06500
C546        C  0.23184273  0.93056936  0.38290542    -0.17600
C547        C  0.21054966  0.93528576  0.35331649     0.10700
C548        C  0.17339430  0.88412322  0.33594553    -0.06400
C549        C  0.15354290  0.83011850  0.35091411    -0.17600
C550        C  0.17417389  0.82569377  0.38064933     0.10700
S551        S  0.23437446  0.00752355  0.33849411    -0.32600
S552        S  0.14502412  0.75357983  0.39660733    -0.32600
H553        H  0.14044678  0.77004771  0.42776950     0.28800
H554        H  0.25652329  0.03757308  0.36708440     0.28800
H555        H  0.26356450  0.96990645  0.39479187     0.19300
H556        H  0.12251798  0.79028595  0.33912815     0.19300
C557        C  0.38731404  0.68765996  0.33351212    -0.06500
C558        C  0.43289393  0.74481965  0.33903906    -0.17600
C559        C  0.43489200  0.77363662  0.36709935     0.10700
C560        C  0.39034029  0.74486935  0.39069880    -0.06400
C561        C  0.34657940  0.68675212  0.38594172    -0.17600
C562        C  0.34559428  0.65743314  0.35800933     0.10700
S563        S  0.49294024  0.84845499  0.37001095    -0.32600
S564        S  0.29462252  0.58057811  0.35517940    -0.32600
H565        H  0.26310709  0.57454339  0.38361136     0.28800
H566        H  0.45348889  0.86847741  0.37859281     0.28800
H567        H  0.46620438  0.76829949  0.32081606     0.19300
H568        H  0.31331780  0.66429252  0.40431099     0.19300
C569        C  0.19630422  0.88373736  0.03763704    -0.06500
C570        C  0.15279374  0.83033259  0.05015987    -0.17600
C571        C  0.12594437  0.82693384  0.07988197     0.10700
C572        C  0.14537782  0.87840274  0.09799916    -0.06400
C573        C  0.18196653  0.93199955  0.08282483    -0.17600
C574        C  0.20710382  0.93497687  0.05296181     0.10700
S575        S  0.07026552  0.75627895  0.09439191    -0.32600
S576        S  0.25982203  0.00537871  0.03749033    -0.32600
H577        H  0.25291722  0.98836096  0.00554024     0.28800
H578        H  0.06139469  0.72637231  0.06562257     0.28800
H579        H  0.14408493  0.79088053  0.03807214     0.19300
H580        H  0.19573794  0.97231561  0.09529229     0.19300
C581        C  0.38275668  0.75275517  0.05607949    -0.06500
C582        C  0.41958526  0.78474634  0.08125211    -0.17600
C583        C  0.42078042  0.75799961  0.10934208     0.10700
C584        C  0.38648677  0.69709494  0.11215842    -0.06400
C585        C  0.35083455  0.66454773  0.08664794    -0.17600
C586        C  0.34797934  0.69188531  0.05880468     0.10700
S587        S  0.46332311  0.80480520  0.14144965    -0.32600
S588        S  0.29681096  0.64765507  0.02855909    -0.32600
H589        H  0.27643582  0.68657488  0.02157795     0.28800
H590        H  0.42169990  0.77195094  0.16530621     0.28800
H591        H  0.44555320  0.83158827  0.07961012     0.19300
H592        H  0.32415656  0.61785402  0.08872097     0.19300
C593        C  0.02444247  0.54074152  0.04892389    -0.06500
C594        C  0.07729850  0.53998726  0.05524927    -0.17600
C595        C  0.10841461  0.56324911  0.08347241     0.10700
C596        C  0.08499269  0.58588905  0.10641531    -0.06400
C597        C  0.03444737  0.59018982  0.09863159    -0.17600
C598        C  0.50758597  0.57372727  0.06908625     0.10700
S599        S  0.17738262  0.56292523  0.08847473    -0.32600
S600        S  0.43752510  0.07186263  0.06663010    -0.32600
H601        H  0.44110552  0.07292070  0.03334184     0.28800
H602        H  0.20773419  0.61870468  0.10184625     0.28800
H603        H  0.09285958  0.51872149  0.03887808     0.19300
H604        H  0.01635300  0.60890649  0.11516389     0.19300
C605        C  0.61493390  0.10753545  0.13857670     0.79900
N606        N  0.60221004  0.14480815  0.15469144    -0.78400
C607        C  0.62744447  0.16622284  0.18302878     0.82300
N608        N  0.66676633  0.15183194  0.19363987    -0.78400
C609        C  0.67316296  0.10864997  0.18167372     0.82400
N610        N  0.64752105  0.08620050  0.15315102    -0.80100
C611        C  0.72400183  0.04579447  0.25054897     0.45100
H612        H  0.72300208  0.04554967  0.27686008    -0.03900
C613        C  0.72658476  0.04628667  0.18879306     0.45200
H614        H  0.72758758  0.04652659  0.16247924    -0.03900
C615        C  0.78769736  0.07151086  0.23669263    -0.17600
C616        C  0.68681835  0.98499154  0.23608366    -0.17400
C617        C  0.69878300  0.08196213  0.23632103    -0.17700
C618        C  0.78902600  0.07211180  0.20331358    -0.17700
C619        C  0.69074940  0.98510908  0.20303918    -0.17300
C620        C  0.69926137  0.08156101  0.20290911    -0.17600
C621        C  0.56811608  0.22080966  0.19003282     0.45100
H622        H  0.56944630  0.22116254  0.16374120    -0.03900
C623        C  0.56461251  0.22046479  0.25170643     0.45200
H624        H  0.56299921  0.22028887  0.27801042    -0.03900
C625        C  0.59399480  0.28148025  0.20422306    -0.17600
C626        C  0.50462674  0.18419041  0.20365732    -0.17400
C627        C  0.60424427  0.19569806  0.20465274    -0.17700
C628        C  0.58935603  0.28134041  0.23727945    -0.17700
C629        C  0.50278923  0.18396173  0.23696699    -0.17300
C630        C  0.60324884  0.19587117  0.23796241    -0.17600
C631        C  0.89640137  0.17001789  0.14148406     0.79900
N632        N  0.84345455  0.13137572  0.15562596    -0.78400
C633        C  0.84351504  0.10198794  0.18189384     0.82300
N634        N  0.89632678  0.10957283  0.19172802    -0.78400
C635        C  0.94888243  0.15427882  0.18193146     0.82400
N636        N  0.94907622  0.18399099  0.15580182    -0.80100
C637        C  0.64034293  0.38326323  0.13471129     0.79900
N638        N  0.66341675  0.43465284  0.15096681    -0.78400
C639        C  0.67080100  0.43515708  0.18279190     0.82300
N640        N  0.65858953  0.38549523  0.19691988    -0.78400
C641        C  0.62517322  0.33394537  0.18333230     0.82400
N642        N  0.61794089  0.33242572  0.15143592    -0.80100
C643        C  0.89322118  0.15930853  0.30150389     0.79900
N644        N  0.94605968  0.17601812  0.28601151    -0.78400
C645        C  0.94637694  0.15159420  0.25788715     0.82300
N646        N  0.89412177  0.10995607  0.24681514    -0.78400
C647        C  0.84111392  0.09953223  0.25827379     0.82400
N648        N  0.84024439  0.12357890  0.28670777    -0.80100
C649        C  0.66130786  0.38700871  0.30302696     0.79900
N650        N  0.67591045  0.43709910  0.28719636    -0.78400
C651        C  0.65411998  0.43531704  0.25784441     0.82300
N652        N  0.61360035  0.38305114  0.24617264    -0.78400
C653        C  0.60795961  0.33344925  0.25833433     0.82400
N654        N  0.63041622  0.33535181  0.28753354    -0.80100
C655        C  0.60969877  0.10151961  0.30138995     0.79900
N656        N  0.64331266  0.08229113  0.28566876    -0.78400
C657        C  0.67213346  0.10866753  0.25824823     0.82300
N658        N  0.66852730  0.15491677  0.24853291    -0.78400
C659        C  0.62669516  0.16668347  0.25949760     0.82400
N660        N  0.59804113  0.14079629  0.28690495    -0.80100
Zn661      Zn  0.86078137  0.35909331  0.51738631     1.49700
Zn662      Zn  0.94628137  0.37634234  0.45993394     1.49400
Zn663      Zn  0.80229410  0.29966851  0.45393320     1.49100
Zn664      Zn  0.86832872  0.43968427  0.46231649     1.49500
O665        O  0.86931467  0.36823692  0.47272723    -1.84500
O666        O  0.93139461  0.36423097  0.53640404    -0.75100
O667        O  0.93298472  0.31023650  0.43117677    -0.74900
O668        O  0.74498264  0.24046513  0.48692590    -0.74500
O669        O  0.99845521  0.38409386  0.49800081    -0.75100
O670        O  0.79037623  0.28654325  0.53090132    -0.74700
O671        O  0.83448760  0.26230882  0.42397823    -0.75300
O672        O  0.79410763  0.42027636  0.43825805    -0.74700
O673        O  0.98902557  0.44527888  0.43078114    -0.75500
O674        O  0.75760862  0.32698124  0.42642708    -0.74900
O675        O  0.93261131  0.48628243  0.43046890    -0.75300
O676        O  0.87742683  0.48963455  0.50099172    -0.75200
O677        O  0.85652585  0.42298913  0.53799638    -0.75000
C678        C  0.98339162  0.37715329  0.52723736     0.76800
C679        C  0.88678501  0.27188985  0.41695433     0.77300
C680        C  0.74797532  0.24382727  0.51705737     0.76200
C681        C  0.75862278  0.37510338  0.42274153     0.76600
C682        C  0.97677469  0.48271185  0.41969872     0.77700
C683        C  0.86774017  0.47324913  0.52982045     0.76800
Zn684      Zn  0.94513106  0.45481232  0.95985816     1.49700
Zn685      Zn  0.79992896  0.38132638  0.95559623     1.49400
Zn686      Zn  0.87814915  0.31648498  0.96201726     1.49100
Zn687      Zn  0.86647563  0.39088693  0.01805882     1.49500
O688        O  0.87193620  0.38527269  0.97324832    -1.84500
O689        O  0.92318921  0.50378330  0.93372446    -0.75100
O690        O  0.75947499  0.31159131  0.92746849    -0.74900
O691        O  0.94884644  0.33831753  0.93201478    -0.74500
O692        O  0.82523577  0.44954324  0.92650252    -0.75100
O693        O  0.99162669  0.43376070  0.92943578    -0.74700
O694        O  0.80748200  0.26248542  0.93514853    -0.75300
O695        O  0.87432635  0.32976230  0.03920663    -0.74700
O696        O  0.74072277  0.37991965  0.98911030    -0.75500
O697        O  0.88550432  0.27653554  0.00190013    -0.74900
O698        O  0.79186121  0.38723103  0.03242880    -0.75300
O699        O  0.93211900  0.46268527  0.03540147    -0.75200
O700        O  0.99860987  0.50212178  0.99641994    -0.75000
C701        C  0.87529212  0.49433462  0.92020946     0.76800
C702        C  0.76722669  0.26878276  0.92140976     0.77300
C703        C  0.98820604  0.38668405  0.92014974     0.76200
C704        C  0.88297122  0.28858247  0.03099997     0.76600
C705        C  0.74642547  0.38364829  0.01910262     0.77700
C706        C  0.98321222  0.50048146  0.02532349     0.76800
C707        C  0.89378318  0.12713144  0.63296312     0.79900
N708        N  0.84139165  0.10554383  0.65003667    -0.78400
C709        C  0.84231838  0.10648995  0.68209516     0.82300
N710        N  0.89489833  0.12713765  0.69592090    -0.78400
C711        C  0.94712388  0.15753755  0.68106278     0.82400
N712        N  0.94742219  0.15590135  0.64869402    -0.80100
C713        C  0.89192880  0.11209628  0.80033614     0.79900
N714        N  0.94446103  0.14801755  0.78506552    -0.78400
C715        C  0.94436966  0.17200107  0.75668500     0.82300
N716        N  0.89165905  0.16408118  0.74589037    -0.78400
C717        C  0.83954280  0.11967172  0.75704317     0.82400
N718        N  0.83965525  0.09496876  0.78503654    -0.80100
C719        C  0.72571467  0.05442880  0.68837203     0.45100
H720        H  0.72653421  0.05403668  0.66207711    -0.03900
C721        C  0.72310167  0.05497511  0.75010754     0.45200
H722        H  0.72235412  0.05528135  0.77641346    -0.03900
C723        C  0.69699749  0.99344992  0.70313472    -0.17600
C724        C  0.78783493  0.08644656  0.70271406    -0.17400
C725        C  0.69255641  0.08441328  0.70217708    -0.17700
C726        C  0.69585790  0.99356385  0.73642258    -0.17700
C727        C  0.78657426  0.08972874  0.73578587    -0.17300
C728        C  0.68807377  0.08149885  0.73536310    -0.17600
C729        C  0.56337438  0.22901609  0.74944856     0.45100
H730        H  0.56279967  0.22895847  0.77575028    -0.03900
C731        C  0.56543631  0.22880929  0.68762154     0.45200
H732        H  0.56606125  0.22872972  0.66131915    -0.03900
C733        C  0.50090905  0.20024460  0.73528857    -0.17600
C734        C  0.59597395  0.29011978  0.73520532    -0.17400
C735        C  0.59333906  0.19622885  0.73538571    -0.17700
C736        C  0.50176904  0.19620441  0.70198406    -0.17700
C737        C  0.59674764  0.29052019  0.70183147    -0.17300
C738        C  0.59734380  0.19897580  0.70226781    -0.17600
C739        C  0.60809493  0.39582648  0.63912137     0.79900
N740        N  0.59323334  0.34394938  0.65336554    -0.78400
C741        C  0.62095134  0.34359562  0.68049946     0.82300
N742        N  0.66487601  0.39478206  0.69108021    -0.78400
C743        C  0.67221467  0.44607176  0.68130250     0.82400
N744        N  0.64501495  0.44673511  0.65418158    -0.80100
C745        C  0.64562466  0.14176920  0.63310188     0.79900
N746        N  0.66993213  0.11385423  0.64932341    -0.78400
C747        C  0.67564665  0.11975883  0.68137651     0.82300
N748        N  0.66215856  0.15698816  0.69544380    -0.78400
C749        C  0.62882024  0.17609506  0.68170402     0.82400
N750        N  0.62137767  0.16949801  0.64993402    -0.80100
C751        C  0.67015381  0.16599295  0.80076077     0.79900
N752        N  0.68329121  0.12834481  0.78549209    -0.78400
C753        C  0.65944868  0.10667694  0.75676562     0.82300
N754        N  0.61840059  0.11912893  0.74530169    -0.78400
C755        C  0.61408963  0.16460649  0.75671177     0.82400
N756        N  0.63854375  0.18691660  0.78530139    -0.80100
C757        C  0.60933391  0.39059840  0.80166517     0.79900
N758        N  0.59302136  0.34000631  0.78559464    -0.78400
C759        C  0.61836761  0.34177298  0.75688080     0.82300
N760        N  0.65983137  0.39339702  0.74588022    -0.80000
C761        C  0.66915297  0.44368871  0.75773723     0.82400
N762        N  0.64475140  0.44260179  0.78656154    -0.80100
C763        C  0.69325281  0.18714223  0.83301861    -0.06500
C764        C  0.65880423  0.20019177  0.85394955    -0.17600
C765        C  0.67860093  0.22133513  0.88446866     0.10700
C766        C  0.73467001  0.23040237  0.89453637    -0.06400
C767        C  0.76709911  0.21363592  0.87444798    -0.17600
C768        C  0.74812753  0.19388722  0.84374568     0.10700
S769        S  0.63033995  0.23594483  0.90933088    -0.32600
S770        S  0.80019646  0.18564545  0.81856283    -0.32600
H771        H  0.79243255  0.21381095  0.79238889     0.28800
H772        H  0.65044954  0.22543024  0.93805858     0.28800
H773        H  0.61613825  0.19427516  0.84645133     0.19300
H774        H  0.81073352  0.22137775  0.88148306     0.19300
C775        C  0.52869069  0.39403379  0.89190929    -0.06500
C776        C  0.52613153  0.34244422  0.88154732    -0.17600
C777        C  0.55435425  0.34011559  0.85343862     0.10700
C778        C  0.58459770  0.39024631  0.83398427    -0.06400
C779        C  0.59033302  0.44255103  0.84539059    -0.17600
C780        C  0.56355322  0.44547141  0.87386934     0.10700
S781        S  0.55021340  0.27178838  0.84453208    -0.32600
S782        S  0.57267168  0.51536172  0.88508832    -0.32600
H783        H  0.61521411  0.54946866  0.86186966     0.28800
H784        H  0.61118383  0.29717758  0.83645811     0.28800
H785        H  0.98754650  0.29423714  0.89315613     0.19300
H786        H  0.61436845  0.48158739  0.83132913     0.19300
C787        C  0.89049738  0.08820894  0.83234203    -0.06500
C788        C  0.83859163  0.06927723  0.85116331    -0.17600
C789        C  0.83304717  0.04445686  0.88111101     0.10700
C790        C  0.88066650  0.03851691  0.89303518    -0.06400
C791        C  0.93383538  0.06082900  0.87512604    -0.17600
C792        C  0.93864035  0.08362030  0.84480630     0.10700
S793        S  0.76418682  0.02145022  0.90272495    -0.32600
S794        S  0.00464391  0.09895418  0.82236812    -0.32600
H795        H  0.97294003  0.06882077  0.79531887     0.28800
H796        H  0.78917187  0.52411185  0.93365523     0.28800
H797        H  0.80150686  0.07331069  0.84243346     0.19300
H798        H  0.97032991  0.55081379  0.88322800     0.19300
C799        C  0.70056541  0.20090265  0.53779988    -0.06500
C800        C  0.70448444  0.15290581  0.54831189    -0.17600
C801        C  0.68050974  0.12697749  0.57800048     0.10700
C802        C  0.65380427  0.15121320  0.59795062    -0.06400
C803        C  0.64393281  0.19458708  0.58512122    -0.17600
C804        C  0.66624963  0.21890560  0.55544445     0.10700
S805        S  0.68794773  0.06582055  0.59027832    -0.32600
S806        S  0.65826598  0.27978599  0.54352862    -0.32600
H807        H  0.66449212  0.27362184  0.51083726     0.28800
H808        H  0.71127997  0.05832978  0.56152611     0.28800
H809        H  0.73109564  0.13928706  0.53462885     0.19300
H810        H  0.62361827  0.21417483  0.59936887     0.19300
C811        C  0.88265698  0.04750152  0.54246460    -0.06500
C812        C  0.93616694  0.09764104  0.55042462    -0.17600
C813        C  0.94016058  0.12921894  0.57807343     0.10700
C814        C  0.89020554  0.10919692  0.59889555    -0.06400
C815        C  0.83532806  0.06289897  0.58854776    -0.17600
C816        C  0.82676505  0.49086631  0.57957213     0.10700
S817        S  0.01015550  0.19351939  0.58565361    -0.32600
S818        S  0.75699762  0.42350248  0.57681696    -0.32600
H819        H  0.75233706  0.42531370  0.54373800     0.28800
H820        H  0.98399672  0.22431022  0.59903530     0.28800
H821        H  0.97596081  0.11031894  0.53611010     0.19300
H822        H  0.79544136  0.04711218  0.60315897     0.19300
C823        C  0.52997172  0.39342314  0.54938671    -0.06500
C824        C  0.54032199  0.43683669  0.57150823    -0.17600
C825        C  0.56446715  0.43812254  0.60105524     0.10700
C826        C  0.58201700  0.39678676  0.60828585    -0.06400
C827        C  0.57530673  0.35565992  0.58519987    -0.17600
C828        C  0.54856133  0.35303681  0.55606911     0.10700
S829        S  0.56475598  0.48929322  0.62934377    -0.32600
S830        S  0.53513872  0.29509424  0.52922971    -0.32600
H831        H  0.98855873  0.28193114  0.51810997     0.28800
H832        H  0.54513551  0.45030807  0.65503056     0.28800
H833        H  0.52461939  0.46708615  0.56674000     0.19300
H834        H  0.58918951  0.32419794  0.59028321     0.19300
C835        C  0.51451511  0.01921573  0.38810144    -0.06500
C836        C  0.57032012  0.02394599  0.38153771    -0.17600
C837        C  0.60341993  0.05231306  0.35429937     0.10700
C838        C  0.57994548  0.07539390  0.33215895    -0.06400
C839        C  0.52534702  0.07264005  0.33926457    -0.17600
C840        C  0.49225218  0.04459067  0.36643335     0.10700
S841        S  0.67621376  0.05949952  0.35010203    -0.32600
S842        S  0.94185335  0.57366477  0.38892676    -0.32600
H843        H  0.93094319  0.59100002  0.35947398     0.28800
H844        H  0.70385432  0.11697910  0.33881645     0.28800
H845        H  0.58871052  0.00570547  0.39785946     0.19300
H846        H  0.50662500  0.09032354  0.32277956     0.19300
C847        C  0.72425395  0.38108872  0.39661612    -0.06500
C848        C  0.75222485  0.43301703  0.37916758    -0.17600
C849        C  0.73319361  0.43680810  0.34888224     0.10700
C850        C  0.68278950  0.38804493  0.33577344    -0.06400
C851        C  0.65169818  0.33773662  0.35458835    -0.17600
C852        C  0.67169066  0.33378763  0.38468452     0.10700
S853        S  0.77972454  0.50333507  0.32762934    -0.32600
S854        S  0.62848087  0.26718382  0.40653955    -0.32600
H855        H  0.64395212  0.29306545  0.43662843     0.28800
H856        H  0.78659577  0.47515651  0.30097936     0.28800
H857        H  0.79289073  0.46964002  0.38787018     0.19300
H858        H  0.61175039  0.30061603  0.34565663     0.19300
C859        C  0.89433471  0.18550853  0.33256043    -0.06500
C860        C  0.93430673  0.24485735  0.33655443    -0.17600
C861        C  0.93479478  0.27323635  0.36450618     0.10700
C862        C  0.89412177  0.24181518  0.38930822    -0.06400
C863        C  0.85600084  0.18184368  0.38589125    -0.17600
C864        C  0.85741391  0.15317060  0.35825650     0.10700
S865        S  0.98580957  0.35033384  0.36594807    -0.32600
S866        S  0.81549272  0.07518141  0.35813473    -0.32600
H867        H  0.85835440  0.06888084  0.34039316     0.28800
H868        H  0.94327357  0.36418224  0.37780485     0.28800
H869        H  0.96404490  0.26990558  0.31729872     0.19300
H870        H  0.82582232  0.15712212  0.40505904     0.19300
C871        C  0.70241146  0.38707304  0.04005078    -0.06500
C872        C  0.65350292  0.33547358  0.05114977    -0.17600
C873        C  0.62638087  0.33350266  0.08062648     0.10700
C874        C  0.65005553  0.38426959  0.09965551    -0.06400
C875        C  0.69372828  0.43703514  0.08612099    -0.17600
C876        C  0.71969865  0.43886034  0.05670814     0.10700
S877        S  0.56458376  0.26509848  0.09389312    -0.32600
S878        S  0.78091000  0.50756727  0.04365376    -0.32600
H879        H  0.77605687  0.49350813  0.01128777     0.28800
H880        H  0.55515692  0.23529095  0.06505732     0.28800
H881        H  0.64033627  0.29579702  0.03821563     0.19300
H882        H  0.71225351  0.47672560  0.09962633     0.19300
C883        C  0.89106548  0.25617003  0.05685794    -0.06500
C884        C  0.92672429  0.28853657  0.08232785    -0.17600
C885        C  0.92900538  0.26173317  0.11019443     0.10700
C886        C  0.89627063  0.20068277  0.11253625    -0.06400
C887        C  0.86219608  0.16802296  0.08666898    -0.17600
C888        C  0.85894604  0.19521224  0.05895491     0.10700
S889        S  0.97112978  0.30825999  0.14248656    -0.32600
S890        S  0.81063896  0.15060879  0.02789242    -0.32600
H891        H  0.78482638  0.18560111  0.02253074     0.28800
H892        H  0.93073068  0.27388337  0.16642635     0.28800
H893        H  0.95111063  0.33552529  0.08101567     0.19300
H894        H  0.83698273  0.12113156  0.08834499     0.19300
C895        C  0.52366939  0.03955001  0.05059519    -0.06500
C896        C  0.57872648  0.04219383  0.05539134    -0.17600
C897        C  0.61151227  0.06700553  0.08302002     0.10700
C898        C  0.58721345  0.08668630  0.10707426    -0.06400
C899        C  0.53436110  0.08783980  0.10077796    -0.17600
C900        C  0.99731314  0.05990386  0.07501886     0.10700
S901        S  0.68436238  0.07397564  0.08563383    -0.32600
S902        S  0.93984095  0.57597623  0.06324858    -0.32600
H903        H  0.94251441  0.57385687  0.03002082     0.28800
H904        H  0.71090824  0.12862871  0.10036970     0.28800
H905        H  0.59525494  0.02315734  0.03812993     0.19300
H906        H  0.51593335  0.10501818  0.11807330     0.19300
C907        C  0.61428671  0.61179837  0.13691952     0.79900
N908        N  0.59904081  0.64715480  0.15323994    -0.78400
C909        C  0.62059307  0.66585418  0.18251141     0.82300
N910        N  0.65884340  0.65084277  0.19387825    -0.78400
C911        C  0.66843199  0.61012472  0.18126363     0.82400
N912        N  0.64617858  0.59011032  0.15189367    -0.80100
C913        C  0.72017759  0.54857517  0.25025143     0.45100
H914        H  0.71918580  0.54874943  0.27655568    -0.03900
C915        C  0.72293269  0.54860032  0.18850894     0.45200
H916        H  0.72398967  0.54858263  0.16219918    -0.03900
C917        C  0.78374086  0.57516000  0.23633516    -0.17600
C918        C  0.68457990  0.48753052  0.23615813    -0.17400
C919        C  0.69386765  0.58350240  0.23576875    -0.17700
C920        C  0.78518327  0.57554863  0.20302676    -0.17700
C921        C  0.68888334  0.48753743  0.20305303    -0.17300
C922        C  0.69451019  0.58302116  0.20243481    -0.17600
C923        C  0.55758604  0.71723402  0.18961951     0.45100
H924        H  0.55831194  0.71735672  0.16332825    -0.03900
C925        C  0.55534849  0.71719544  0.25127231     0.45200
H926        H  0.55452175  0.71723571  0.27758347    -0.03900
C927        C  0.58342442  0.77804351  0.20370539    -0.17600
C928        C  0.49436713  0.68032915  0.20372191    -0.17400
C929        C  0.59476351  0.69294318  0.20409450    -0.17700
C930        C  0.57974660  0.77804586  0.23678644    -0.17700
C931        C  0.49337530  0.68015955  0.23695843    -0.17300
C932        C  0.59374977  0.69278630  0.23740132    -0.17600
C933        C  0.89240016  0.67166596  0.14075266     0.79900
N934        N  0.83941641  0.63328328  0.15496878    -0.78400
C935        C  0.83950267  0.60509868  0.18174701     0.82300
N936        N  0.89217952  0.61357188  0.19216174    -0.78400
C937        C  0.94451810  0.65814545  0.18228341     0.82400
N938        N  0.94494316  0.68650722  0.15551411    -0.80100
C939        C  0.63322495  0.88101718  0.13448259     0.79900
N940        N  0.66006261  0.93241571  0.15087393    -0.78400
C941        C  0.66815009  0.93218979  0.18258837     0.82300
N942        N  0.65219519  0.88139215  0.19651864    -0.78400
C943        C  0.61581653  0.83055855  0.18290692     0.82400
N944        N  0.60809800  0.82984521  0.15107978    -0.80100
C945        C  0.88527586  0.66610162  0.30098461     0.79900
N946        N  0.93934193  0.68331734  0.28640380    -0.78400
C947        C  0.94127690  0.65840952  0.25851028     0.82300
N948        N  0.89003435  0.61558807  0.24726914    -0.78400
C949        C  0.83642789  0.60430519  0.25793623     0.82400
N950        N  0.83383785  0.62863942  0.28572855    -0.80100
C951        C  0.66392438  0.88188709  0.30065677     0.79900
N952        N  0.68005984  0.93266912  0.28542864    -0.78400
C953        C  0.65504706  0.93273888  0.25748215     0.82300
N954        N  0.61048012  0.88156453  0.24647392    -0.78400
C955        C  0.60223242  0.83038394  0.25801996     0.82400
N956        N  0.62766325  0.83063126  0.28605110    -0.80100
C957        C  0.59853107  0.59525747  0.29938073     0.79900
N958        N  0.63509028  0.57938874  0.28401208    -0.78400
C959        C  0.66544894  0.60834784  0.25757811     0.82300
N960        N  0.66142220  0.65484063  0.24871524    -0.78400
C961        C  0.61678908  0.66325544  0.25892663     0.82400
N962        N  0.58568700  0.63398179  0.28524898    -0.80100
Zn963      Zn  0.87509482  0.88679830  0.51708850     1.49700
Zn964      Zn  0.95536305  0.88036632  0.46039982     1.49400
Zn965      Zn  0.81215623  0.81623153  0.45731728     1.49100
Zn966      Zn  0.88985345  0.95739010  0.45623063     1.49500
O967        O  0.88357041  0.88537872  0.47224196    -1.84500
O968        O  0.94452923  0.88976863  0.53641188    -0.75100
O969        O  0.93409351  0.80997766  0.43267158    -0.74900
O970        O  0.75939314  0.76196151  0.49215086    -0.74500
O971        O  0.00271380  0.88280002  0.49944312    -0.75100
O972        O  0.80407500  0.81646866  0.53401286    -0.74700
O973        O  0.83619503  0.77191414  0.42867678    -0.75300
O974        O  0.82037603  0.93586765  0.42763087    -0.74700
O975        O  0.00734136  0.94609547  0.43069160    -0.75500
O976        O  0.76556019  0.83934408  0.42907322    -0.74900
O977        O  0.96005811  0.99634197  0.42638217    -0.75300
O978        O  0.89448602  0.01426725  0.49111677    -0.75200
O979        O  0.87303123  0.95636473  0.53281316    -0.75000
C980        C  0.99093769  0.88784077  0.52832658     0.76800
C981        C  0.88455586  0.77374713  0.42028683     0.77300
C982        C  0.76294625  0.77026615  0.52189224     0.76200
C983        C  0.77653582  0.88829570  0.41811095     0.76600
C984        C  0.00136791  0.98610931  0.41774611     0.77700
C985        C  0.88384650  0.00434071  0.52071176     0.76800
Zn986      Zn  0.94061601  0.95844474  0.96079875     1.49700
Zn987      Zn  0.79675724  0.88660794  0.95531172     1.49400
Zn988      Zn  0.87320319  0.81971222  0.96150388     1.49100
Zn989      Zn  0.86030268  0.88955631  0.01846673     1.49500
O990        O  0.86720058  0.88822169  0.97351553    -1.84500
O991        O  0.92116302  0.00914237  0.93435121    -0.75100
O992        O  0.75617131  0.81719477  0.92682473    -0.74900
O993        O  0.94211334  0.84277074  0.93060294    -0.74500
O994        O  0.82358156  0.95572469  0.92607245    -0.75100
O995        O  0.98749948  0.93848313  0.93039694    -0.74700
O996        O  0.80276315  0.76681489  0.93498960    -0.75300
O997        O  0.86694495  0.82640236  0.03838384    -0.74700
O998        O  0.73752379  0.88452759  0.98905539    -0.75500
O999        O  0.88132543  0.77709387  0.00000045    -0.74900
O1000       O  0.78522319  0.88561400  0.03277440    -0.75300
O1001       O  0.92702398  0.95968293  0.03670110    -0.75200
O1002       O  0.99279329  0.00378541  0.99781031    -0.75000
C1003       C  0.87412306  0.00029143  0.92012708     0.76800
C1004       C  0.76347807  0.77404278  0.92092578     0.77300
C1005       C  0.98211057  0.89154628  0.91954264     0.76200
C1006       C  0.87714488  0.78660956  0.02930683     0.76600
C1007       C  0.74111707  0.88450520  0.01916287     0.77700
C1008       C  0.97764902  0.99915296  0.02690645     0.76800
C1009       C  0.89261609  0.60689923  0.64151380     0.79900
N1010       N  0.84043109  0.59364497  0.65656000    -0.78400
C1011       C  0.84051398  0.62098567  0.68344538     0.82300
N1012       N  0.89289408  0.66404604  0.69354018    -0.78400
C1013       C  0.94529907  0.67094449  0.68305779     0.82400
N1014       N  0.94567084  0.64273198  0.65605945    -0.80100
C1015       C  0.88891096  0.60669371  0.80162991     0.79900
N1016       N  0.94188019  0.64425110  0.78707204    -0.78400
C1017       C  0.94199776  0.67013667  0.75941102     0.82300
N1018       N  0.88955226  0.66102157  0.74861125    -0.78400
C1019       C  0.83711479  0.61811563  0.75926518     0.82400
N1020       N  0.83645386  0.59118566  0.78660185    -0.80100
C1021       C  0.72512209  0.55960473  0.68965451     0.45100
H1022       H  0.72671174  0.56063638  0.66335890    -0.03900
C1023       C  0.72086411  0.55678710  0.75131727     0.45200
H1024       H  0.71934934  0.55578086  0.77762433    -0.03900
C1025       C  0.69881182  0.49776890  0.70335302    -0.17600
C1026       C  0.78645075  0.59539897  0.70462615    -0.17400
C1027       C  0.68903880  0.58584954  0.70364413    -0.17700
C1028       C  0.69692697  0.49659231  0.73665326    -0.17700
C1029       C  0.78445001  0.59390662  0.73778429    -0.17300
C1030       C  0.68385632  0.58159105  0.73682081    -0.17600
C1031       C  0.55589199  0.72551638  0.75041016     0.45100
H1032       H  0.55501525  0.72525169  0.77670108    -0.03900
C1033       C  0.55857596  0.72636347  0.68864809     0.45200
H1034       H  0.55974447  0.72668073  0.66233711    -0.03900
C1035       C  0.49368686  0.69827547  0.73597913    -0.17600
C1036       C  0.59116429  0.78687608  0.73619415    -0.17400
C1037       C  0.58364130  0.69095228  0.73649014    -0.17700
C1038       C  0.49477383  0.69794782  0.70251883    -0.17700
C1039       C  0.59228824  0.78723511  0.70294879    -0.17300
C1040       C  0.58778135  0.69407541  0.70342559    -0.17600
C1041       C  0.60263443  0.89109610  0.64069697     0.79900
N1042       N  0.58811305  0.83953409  0.65490605    -0.78400
C1043       C  0.61702948  0.83947052  0.68153963     0.82300
N1044       N  0.66173733  0.89041022  0.69172527    -0.78400
C1045       C  0.66906657  0.94152711  0.68177727     0.82400
N1046       N  0.64065630  0.94206153  0.65517877    -0.80100
C1047       C  0.65061551  0.65094954  0.63466695     0.79900
N1048       N  0.67387846  0.62195127  0.65082985    -0.78400
C1049       C  0.67239136  0.62148993  0.68311627     0.82300
N1050       N  0.65312199  0.65361539  0.69759348    -0.78400
C1051       C  0.62187274  0.67412313  0.68331575     0.82400
N1052       N  0.62123387  0.67382204  0.65129577    -0.80100
C1053       C  0.66542898  0.66677024  0.80136672     0.79900
N1054       N  0.67932593  0.62934567  0.78650556    -0.78400
C1055       C  0.65399432  0.60529265  0.75841666     0.82300
N1056       N  0.61069156  0.61504765  0.74734887    -0.78400
C1057       C  0.60576478  0.66068756  0.75807733     0.82400
N1058       N  0.63173710  0.68530927  0.78599295    -0.80100
C1059       C  0.60309346  0.88842931  0.80107349     0.79900
N1060       N  0.58739248  0.83789456  0.78532827    -0.78400
C1061       C  0.61451438  0.83890274  0.75748486     0.82300
N1062       N  0.65756638  0.89022298  0.74673667    -0.80000
C1063       C  0.66645620  0.94097088  0.75794877     0.82400
N1064       N  0.64001366  0.94040671  0.78614124    -0.80100
C1065       C  0.68963597  0.69020023  0.83304147    -0.06500
C1066       C  0.65443579  0.70203342  0.85411849    -0.17600
C1067       C  0.67472953  0.72458030  0.88433214     0.10700
C1068       C  0.73187728  0.73618214  0.89386432    -0.06400
C1069       C  0.76562806  0.72145037  0.87348322    -0.17600
C1070       C  0.74601565  0.70002422  0.84312763     0.10700
S1071       S  0.62551027  0.73713401  0.90960297    -0.32600
S1072       S  0.79829844  0.69243207  0.81768665    -0.32600
H1073       H  0.78750373  0.71752558  0.79107911     0.28800
H1074       H  0.64759717  0.72856211  0.93818176     0.28800
H1075       H  0.61065930  0.69363353  0.84705364     0.19300
H1076       H  0.81014860  0.73138773  0.88014421     0.19300
C1077       C  0.52159600  0.89070380  0.89136339    -0.06500
C1078       C  0.51414125  0.83819010  0.87927963    -0.17600
C1079       C  0.54188464  0.83585940  0.85105599     0.10700
C1080       C  0.57675202  0.88733292  0.83303758    -0.06400
C1081       C  0.58641557  0.94012942  0.84586782    -0.17600
C1082       C  0.56002737  0.94281142  0.87456751     0.10700
S1083       S  0.53123076  0.76550025  0.84050516    -0.32600
S1084       S  0.57659271  0.01387262  0.88843354    -0.32600
H1085       H  0.60190451  0.04484210  0.86018816     0.28800
H1086       H  0.59260874  0.78613411  0.83566213     0.28800
H1087       H  0.98713706  0.80086103  0.89475105     0.19300
H1088       H  0.61457634  0.98006549  0.83315672     0.19300
C1089       C  0.88760815  0.58124958  0.83300862    -0.06500
C1090       C  0.83586067  0.56130190  0.85202207    -0.17600
C1091       C  0.83140741  0.53651819  0.88182534     0.10700
C1092       C  0.88018445  0.53210226  0.89338111    -0.06400
C1093       C  0.93296723  0.55513352  0.87517909    -0.17600
C1094       C  0.93650456  0.57738670  0.84494245     0.10700
S1095       S  0.76243556  0.51156594  0.90367529    -0.32600
S1096       S  0.00198753  0.59287930  0.82196130    -0.32600
H1097       H  0.96977589  0.56389306  0.79479662     0.28800
H1098       H  0.79048291  0.03306259  0.93280984     0.28800
H1099       H  0.79821131  0.56476197  0.84362510     0.19300
H1100       H  0.97045738  0.05569203  0.88352654     0.19300
C1101       C  0.71852757  0.72704485  0.54360120    -0.06500
C1102       C  0.72425674  0.67932655  0.55264546    -0.17600
C1103       C  0.69756002  0.64867038  0.58083722     0.10700
C1104       C  0.66508649  0.66713056  0.60049198    -0.06400
C1105       C  0.65400315  0.71061135  0.58883737    -0.17600
C1106       C  0.68048259  0.74065532  0.56096091     0.10700
S1107       S  0.70849246  0.58876223  0.59155102    -0.32600
S1108       S  0.66955504  0.80054945  0.55056144    -0.32600
H1109       H  0.67947953  0.79898311  0.51784955     0.28800
H1110       H  0.73354744  0.58486603  0.56252533     0.28800
H1111       H  0.75358999  0.66914290  0.53897400     0.19300
H1112       H  0.62830072  0.72510454  0.60263196     0.19300
C1113       C  0.87049216  0.51210987  0.55533020    -0.06500
C1114       C  0.92233137  0.56624971  0.55900539    -0.17600
C1115       C  0.93154815  0.59889849  0.58672201     0.10700
C1116       C  0.88873300  0.57606028  0.61161249    -0.06400
C1117       C  0.83680272  0.52216439  0.60734210    -0.17600
C1118       C  0.83111186  0.03221607  0.56092075     0.10700
S1119       S  0.99780896  0.66909533  0.58849307    -0.32600
S1120       S  0.75940056  0.97025417  0.55201690    -0.32600
H1121       H  0.76956910  0.97048888  0.51921638     0.28800
H1122       H  0.96862046  0.69713029  0.60170768     0.28800
H1123       H  0.95647377  0.58242303  0.54060895     0.19300
H1124       H  0.80296868  0.50372038  0.62585180     0.19300
C1125       C  0.52103607  0.89260681  0.55348983    -0.06500
C1126       C  0.52783977  0.93182864  0.57759175    -0.17600
C1127       C  0.55205050  0.93070872  0.60661823     0.10700
C1128       C  0.57373433  0.89189801  0.61117002    -0.06400
C1129       C  0.56888600  0.85387886  0.58670826    -0.17600
C1130       C  0.54171506  0.85308134  0.55808211     0.10700
S1131       S  0.54825530  0.97574782  0.63763780    -0.32600
S1132       S  0.53099686  0.79840854  0.52943910    -0.32600
H1133       H  0.98061881  0.78262805  0.52333748     0.28800
H1134       H  0.53418227  0.93468362  0.66194897     0.28800
H1135       H  0.51020830  0.96102770  0.57452942     0.19300
H1136       H  0.58488148  0.82354435  0.59028972     0.19300
C1137       C  0.51185146  0.50431964  0.38580670    -0.06500
C1138       C  0.52297161  0.56120433  0.38095528    -0.17600
C1139       C  0.55189298  0.59248923  0.35346397     0.10700
C1140       C  0.56899948  0.56595916  0.32952721    -0.06400
C1141       C  0.55812733  0.50926977  0.33450595    -0.17600
C1142       C  0.52928330  0.47805410  0.36184844     0.10700
S1143       S  0.56780618  0.66666638  0.35133714    -0.32600
S1144       S  0.05326925  0.92232969  0.37292286    -0.32600
H1145       H  0.99099626  0.89540943  0.37734274     0.28800
H1146       H  0.62602461  0.68831837  0.33910520     0.28800
H1147       H  0.50981553  0.58190772  0.39897961     0.19300
H1148       H  0.57035487  0.48798103  0.31637966     0.19300
C1149       C  0.74368586  0.88972025  0.39018880    -0.06500
C1150       C  0.77855297  0.92430495  0.36476534    -0.17600
C1151       C  0.75417476  0.92015457  0.33501463     0.10700
C1152       C  0.69246184  0.88286989  0.33069994    -0.06400
C1153       C  0.65712300  0.84830656  0.35603631    -0.17600
C1154       C  0.68209715  0.85125432  0.38575261     0.10700
S1155       S  0.80527269  0.95976486  0.30298707    -0.32600
S1156       S  0.63306754  0.80614729  0.41705900    -0.32600
H1157       H  0.66573829  0.84362602  0.44184961     0.28800
H1158       H  0.77509865  0.91696310  0.27991841     0.28800
H1159       H  0.82634280  0.95208302  0.36746356     0.19300
H1160       H  0.60962464  0.81967132  0.35281262     0.19300
C1161       C  0.88247232  0.68976044  0.33253386    -0.06500
C1162       C  0.92918602  0.70420629  0.35396436    -0.17600
C1163       C  0.92959021  0.72764966  0.38396363     0.10700
C1164       C  0.88260633  0.73793316  0.39263350    -0.06400
C1165       C  0.83459013  0.72060313  0.37178063    -0.17600
C1166       C  0.83398120  0.69729271  0.34201304     0.10700
S1167       S  0.98936029  0.74268256  0.41094535    -0.32600
S1168       S  0.77346872  0.68359382  0.31572301    -0.32600
H1169       H  0.73486208  0.68658310  0.33849005     0.28800
H1170       H  0.01955689  0.72274394  0.39124159     0.28800
H1171       H  0.96555321  0.69705489  0.34711876     0.19300
H1172       H  0.79865907  0.72882378  0.37789721     0.19300
C1173       C  0.69590126  0.88614786  0.03996471    -0.06500
C1174       C  0.64839578  0.83370185  0.05121931    -0.17600
C1175       C  0.62030647  0.83094042  0.08049466     0.10700
C1176       C  0.64196703  0.88188810  0.09930045    -0.06400
C1177       C  0.68367556  0.93518423  0.08542471    -0.17600
C1178       C  0.71066669  0.93768093  0.05624187     0.10700
S1179       S  0.55997353  0.76150928  0.09370974    -0.32600
S1180       S  0.77051838  0.00706390  0.04323039    -0.32600
H1181       H  0.76511555  0.99331191  0.01081714     0.28800
H1182       H  0.55271617  0.73150160  0.06512216     0.28800
H1183       H  0.63705716  0.79416333  0.03850910     0.19300
H1184       H  0.70026414  0.97508657  0.09862276     0.19300
C1185       C  0.88626547  0.75372727  0.05446383    -0.06500
C1186       C  0.92712937  0.78633316  0.07807732    -0.17600
C1187       C  0.92960008  0.76104607  0.10647035     0.10700
C1188       C  0.89231689  0.70075396  0.11103674    -0.06400
C1189       C  0.85328480  0.66745591  0.08674689    -0.17600
C1190       C  0.84927844  0.69347087  0.05870302     0.10700
S1191       S  0.97671207  0.80938068  0.13690243    -0.32600
S1192       S  0.79418312  0.64855012  0.03013444    -0.32600
H1193       H  0.77643732  0.68916088  0.02240194     0.28800
H1194       H  0.93566231  0.78124513  0.16180190     0.28800
H1195       H  0.95483501  0.83292345  0.07518588     0.19300
H1196       H  0.82454450  0.62115167  0.09002557     0.19300
C1197       C  0.52612519  0.54384206  0.04849133    -0.06500
C1198       C  0.57904107  0.54316880  0.05464816    -0.17600
C1199       C  0.61113711  0.56777913  0.08238404     0.10700
C1200       C  0.58894518  0.59231708  0.10484571    -0.06400
C1201       C  0.53875466  0.59723398  0.09688732    -0.17600
C1202       C  0.00470417  0.56873628  0.07023151     0.10700
S1203       S  0.67915124  0.56574928  0.08762228    -0.32600
S1204       S  0.92811223  0.06105909  0.07223324    -0.32600
H1205       H  0.92843330  0.06427398  0.03897959     0.28800
H1206       H  0.71094084  0.62221074  0.10004481     0.28800
H1207       H  0.59368589  0.52059005  0.03864703     0.19300
H1208       H  0.52160818  0.61746585  0.11298837     0.19300
loop_ 
_geom_bond_atom_site_label_1 
_geom_bond_atom_site_label_2 
_geom_bond_distance 
_geom_bond_site_symmetry_2 
_ccdc_geom_bond_type 
C1            N2   1.363       .  A
C1            N6   1.376       .  A
C1          C294   1.481       .  S
N2            C3   1.347       .  A
C3            N4   1.338       .  A
C3           C23   1.508       .  S
N4            C5   1.341       .  A
C5            N6   1.366       .  A
C5           C16   1.514       .  S
C7            H8   1.109       .  S
C7           C13   1.524       .  S
C7           C12   1.530   1_545  S
C7           C11   1.535       .  S
C9           H10   1.111       .  S
C9           C15   1.539   1_545  S
C9           C14   1.537       .  S
C9           C16   1.548       .  S
C11          C43   1.503       .  S
C11          C14   1.407       .  D
C12         C349   1.510       .  S
C12          C15   1.399       .  D
C13          C53   1.512       .  S
C13          C16   1.410       .  D
C14          C29   1.510       .  S
C15         C337   1.500       .  S
C17          H18   1.110       .  S
C17          C23   1.530       .  S
C17          C22   1.541       .  S
C17          C21   1.530       .  S
C19          H20   1.111       .  S
C19          C25   1.535       .  S
C19          C24   1.541       .  S
C19          C26   1.544       .  S
C21          C37   1.498       .  S
C21          C24   1.399       .  D
C22         C635   1.510   1_455  S
C22          C25   1.403       .  D
C23          C26   1.407       .  D
C24          C49   1.512       .  S
C25         C645   1.503   1_455  S
C26          C55   1.508       .  S
C27          N28   1.367       .  A
C27          N32   1.368       .  A
C27         C282   1.473       .  S
N28          C29   1.359       .  A
C29          N30   1.343       .  A
N30          C31   1.343       .  A
C31          N32   1.357       .  A
C31         C626   1.511       .  S
C33          N34   1.374       .  A
C33          N38   1.369       .  A
C33         C270   1.498       .  S
N34          C35   1.360       .  A
C35          N36   1.336       .  A
C35         C317   1.500       .  S
N36          C37   1.335       .  A
C37          N38   1.359       .  A
C39          N40   1.371       .  A
C39          N44   1.365       .  A
C39         C255   1.476       .  S
N40          C41   1.363       .  A
C41          N42   1.338       .  A
C41         C629   1.507       .  S
N42          C43   1.336       .  A
C43          N44   1.354       .  A
C45          N46   1.362       .  A
C45          N50   1.363       .  A
C45         C246   1.470       .  S
N46          C47   1.353       .  A
C47          N48   1.356       .  A
C47         C314   1.513       .  S
N48          C49   1.357       .  A
C49          N50   1.359       .  A
C51          N52   1.370       .  A
C51          N56   1.372       .  A
C51         C234   1.487       .  S
N52          C53   1.356       .  A
C53          N54   1.335       .  A
N54          C55   1.336       .  A
C55          N56   1.361       .  A
Zn57         O61   1.895       .  S
Zn57         O62   1.943       .  S
Zn57         O66   1.971       .  S
Zn57         O73   1.969       .  S
Zn58         O61   1.967       .  S
Zn58         O63   2.031       .  S
Zn58         O65   2.055       .  S
Zn58         O69   2.015       .  S
Zn59         O61   1.950       .  S
Zn59         O64   2.041       .  S
Zn59         O67   1.988       .  S
Zn59         O70   2.018       .  S
Zn60         O61   1.954       .  S
Zn60         O68   2.000       .  S
Zn60         O71   2.014       .  S
Zn60         O72   2.052       .  S
O62          C74   1.265       .  A
O63          C75   1.276       .  A
O64          C76   1.273       .  A
O65          C74   1.277       .  A
O66          C76   1.267       .  A
O67          C75   1.273       .  A
O68          C77   1.274       .  A
O69          C78   1.273       .  A
O70          C77   1.275       .  A
O71          C78   1.273       .  A
O72          C79   1.276       .  A
O73          C79   1.268       .  A
C74         C823   1.467       .  S
C75         C258   1.481       .  S
C76         C195   1.465       .  S
C77         C243   1.472       .  S
C78        C1137   1.485       .  S
C79         C509   1.473       .  S
Zn80         O84   1.951       .  S
Zn80         O85   1.987       .  S
Zn80         O89   1.994       .  S
Zn80         O96   2.025       .  S
Zn81         O84   1.964       .  S
Zn81         O86   2.007       .  S
Zn81         O88   2.016       .  S
Zn81         O92   2.057       .  S
Zn82         O84   1.969       .  S
Zn82         O87   2.044       .  S
Zn82         O90   2.018       .  S
Zn82         O93   2.054   1_556  S
Zn83         O84   1.909   1_554  S
Zn83         O91   1.960       .  S
Zn83         O94   1.975       .  S
Zn83         O95   1.976       .  S
O85          C97   1.272       .  A
O86          C98   1.273       .  A
O87          C99   1.276       .  A
O88          C97   1.275       .  A
O89          C99   1.268       .  A
O90          C98   1.276       .  A
O91         C100   1.269       .  A
O92         C101   1.275   1_556  A
O93         C100   1.278       .  A
O94         C101   1.268       .  A
O95         C102   1.268       .  A
O96         C102   1.271   1_556  A
C97         C488   1.476       .  S
C98         C162   1.481       .  S
C99         C775   1.498       .  S
C100        C279   1.476       .  S
C101        C267   1.471       .  S
C102       C1197   1.464       .  S
C103        N104   1.368       .  A
C103        N108   1.383       .  A
C103        C210   1.502       .  S
N104        C105   1.349       .  A
C105        N106   1.326       .  A
C105        C120   1.491       .  S
N106        C107   1.329       .  A
C107        N108   1.371       .  A
C107        C736   1.510       .  S
C109        N110   1.367       .  A
C109        N114   1.361       .  A
C109        C183   1.484       .  S
N110        C111   1.361       .  A
C111        N112   1.355       .  A
C111        C733   1.520       .  S
N112        C113   1.356       .  A
C113        N114   1.353       .  A
C113        C123   1.500       .  S
C115        H116   1.111       .  S
C115        C121   1.536       .  S
C115        C120   1.521       .  S
C115        C119   1.531   1_545  S
C117        H118   1.111       .  S
C117        C123   1.544       .  S
C117        C122   1.537   1_545  S
C117        C124   1.534       .  S
C119        C441   1.498       .  S
C119        C122   1.405       .  D
C120        C123   1.396       .  D
C121        C143   1.503       .  S
C121        C124   1.403       .  D
C122        C459   1.510       .  S
C124        C149   1.509       .  S
C125        H126   1.111       .  S
C125        C131   1.538       .  S
C125        C130   1.530       .  S
C125        C129   1.528   1_455  S
C127        H128   1.111       .  S
C127        C133   1.542       .  S
C127        C132   1.543       .  S
C127        C134   1.531       .  S
C129        C715   1.516       .  S
C129        C132   1.410   1_655  D
C130        C155   1.507       .  S
C130        C133   1.410       .  D
C131        C151   1.504       .  S
C131        C134   1.398       .  D
C132        C711   1.510   1_455  S
C133        C137   1.515       .  S
C134        C145   1.498       .  S
C135        N136   1.368       .  A
C135        N140   1.365       .  A
C135        C222   1.471       .  S
N136        C137   1.359       .  A
C137        N138   1.347       .  A
N138        C139   1.346       .  A
C139        N140   1.354       .  A
C139        C421   1.514       .  S
C141        N142   1.374       .  A
C141        N146   1.371       .  A
C141        C198   1.498       .  S
N142        C143   1.364       .  A
C143        N144   1.334       .  A
N144        C145   1.333       .  A
C145        N146   1.354       .  A
C147        N148   1.362       .  A
C147        N152   1.364       .  A
C147        C159   1.483       .  S
N148        C149   1.356       .  A
C149        N150   1.354       .  A
N150        C151   1.356       .  A
C151        N152   1.358       .  A
C153        N154   1.373       .  A
C153        N158   1.377       .  A
C153        C174   1.503       .  S
N154        C155   1.361       .  A
C155        N156   1.330       .  A
N156        C157   1.329       .  A
C157        N158   1.360       .  A
C157        C424   1.509       .  S
C159        C160   1.406       .  A
C159        C164   1.415       .  A
C160        C161   1.400       .  A
C160        H169   1.083       .  S
C161        C162   1.414       .  A
C161        S165   1.803       .  S
C162        C163   1.404       .  A
C163        C164   1.395       .  A
C163        H170   1.084       .  S
C164        S166   1.801       .  S
S165        H168   1.407       .  S
S166        H167   1.407       .  S
C171        C703   1.500   1_455  S
C171        C172   1.408       .  A
C171        C176   1.422       .  A
C172        C173   1.403       .  A
C172        H785   1.083   1_455  S
C173        C174   1.422       .  A
C173        S177   1.803       .  S
C174        C175   1.408       .  A
C175        C176   1.404       .  A
C175        H182   1.081       .  S
C176        S178   1.813       .  S
S177        H180   1.408       .  S
S178        H179   1.407       .  S
H181        C776   1.083       .  S
C183        C184   1.409       .  A
C183        C188   1.413       .  A
C184        C185   1.400       .  A
C184        H193   1.082       .  S
C185        C186   1.411       .  A
C185        S189   1.804       .  S
C186        C399   1.480       .  S
C186        C187   1.406       .  A
C187        C188   1.397       .  A
C187        H496   1.083       .  S
C188        S190   1.800       .  S
S189        H494   1.407       .  S
S190        H191   1.407       .  S
H192        S491   1.407       .  S
H194        C489   1.083       .  S
C195        C196   1.402       .  A
C195        C200   1.402       .  A
C196        C197   1.411       .  A
C196        H205   1.083       .  S
C197        C198   1.421       .  A
C197        S201   1.803       .  S
C198        C199   1.409       .  A
C199        C200   1.390       .  A
C199        H206   1.081       .  S
C200        S202   1.801       .  S
S201        H204   1.406       .  S
S202        H203   1.406       .  S
C207        C381   1.475   1_545  S
C207        C208   1.406       .  A
C207        C514   1.405       .  A
C208        C209   1.410       .  A
C208        H217   1.085       .  S
C209        C210   1.416       .  A
C209        S213   1.795       .  S
C210        C211   1.413       .  A
C211        C514   1.393       .  A
C211        H218   1.083       .  S
C212        C509   1.408       .  A
C212        C513   1.391       .  A
C212        S214   1.806       .  S
S213        H216   1.408       .  S
S214        H215   1.407       .  S
C219        C678   1.466   1_455  S
C219        C220   1.403       .  A
C219        C224   1.406       .  A
C220        C221   1.391       .  A
C220        H229   1.086       .  S
C221        C222   1.412       .  A
C221        S225   1.806       .  S
C222        C223   1.407       .  A
C223        C224   1.403       .  A
C223        H230   1.085       .  S
C224        S226   1.801       .  S
S225        H228   1.407       .  S
S226        H831   1.406   1_455  S
H227        S830   1.406       .  S
C231        C984   1.485   1_545  S
C231        C232   1.406       .  A
C231        C236   1.418   1_545  A
C232        C233   1.400       .  A
C232        H241   1.085       .  S
C233        C234   1.417       .  A
C233        S237   1.804       .  S
C234        C235   1.406       .  A
C235        C236   1.396   1_545  A
C235        H242   1.084       .  S
C236       S1144   1.804       .  S
S237        H240   1.407       .  S
S238       C1142   1.805       .  S
S238        H239   1.408       .  S
C243        C244   1.403       .  A
C243        C248   1.412       .  A
C244        C245   1.391       .  A
C244        H253   1.084       .  S
C245        C246   1.411       .  A
C245        S249   1.807       .  S
C246        C247   1.406       .  A
C247        C248   1.404       .  A
C247        H254   1.084       .  S
C248        S250   1.803       .  S
S249        H252   1.407       .  S
S250        H251   1.407       .  S
C255        C256   1.405       .  A
C255        C260   1.411       .  A
C256        C257   1.407       .  A
C256        H265   1.084       .  S
C257        C258   1.412       .  A
C257        S261   1.806       .  S
C258        C259   1.405       .  A
C259        C260   1.395       .  A
C259        H266   1.084       .  S
C260        S262   1.809       .  S
S261        H264   1.407       .  S
S262        H263   1.407       .  S
C267        C268   1.401       .  A
C267        C272   1.406       .  A
C268        C269   1.409       .  A
C268        H277   1.082       .  S
C269        C270   1.424       .  A
C269        S273   1.809       .  S
C270        C271   1.408       .  A
C271        C272   1.395       .  A
C271        H278   1.081       .  S
C272        S274   1.803       .  S
S273        H276   1.407       .  S
S274        H275   1.407       .  S
C279        C280   1.404       .  A
C279        C284   1.410       .  A
C280        C281   1.392       .  A
C280        H289   1.085       .  S
C281        C282   1.410       .  A
C281        S285   1.805       .  S
C282        C283   1.408       .  A
C283        C284   1.405       .  A
C283        H290   1.085       .  S
C284        S286   1.799       .  S
S285        H288   1.407       .  S
S286        H287   1.407       .  S
C291       C1008   1.467   1_445  S
C291        C292   1.405       .  A
C291        C900   1.408   1_455  A
C292        C293   1.405       .  A
C292        H301   1.084       .  S
C293        C294   1.415       .  A
C293        S297   1.801       .  S
C294        C295   1.407       .  A
C295        C900   1.388   1_455  A
C295        H302   1.084       .  S
C296        C895   1.408       .  A
C296        C899   1.392       .  A
C296        S600   1.806       .  S
S297        H300   1.407       .  S
S298        C598   1.806       .  S
S298        H299   1.406       .  S
C303        N304   1.367       .  A
C303        N308   1.375       .  A
C303        C596   1.488       .  S
N304        C305   1.352       .  A
C305        N306   1.330       .  A
C305        C325   1.502       .  S
N306        C307   1.333       .  A
C307        N308   1.364       .  A
C307        C318   1.503       .  S
C309        H310   1.110       .  S
C309        C315   1.530       .  S
C309        C314   1.542       .  S
C309        C313   1.544       .  S
C311        H312   1.111       .  S
C311        C317   1.533       .  S
C311        C316   1.531       .  S
C311        C318   1.538       .  S
C313        C345   1.514       .  S
C313        C316   1.411       .  D
C314        C317   1.400       .  D
C315        C355   1.514       .  S
C315        C318   1.408       .  D
C316        C331   1.511       .  S
C319        H320   1.110       .  S
C319        C325   1.526       .  S
C319        C324   1.538   1_455  S
C319        C323   1.526       .  S
C321        H322   1.111       .  S
C321        C327   1.529   1_455  S
C321        C326   1.541       .  S
C321        C328   1.543       .  S
C323        C339   1.502       .  S
C323        C326   1.399       .  D
C324        C937   1.507       .  S
C324        C327   1.406       .  D
C325        C328   1.409       .  D
C326        C351   1.504       .  S
C327        C947   1.506       .  S
C328        C357   1.511       .  S
C329        N330   1.368       .  A
C329        N334   1.367       .  A
C329        C584   1.475       .  S
N330        C331   1.361       .  A
C331        N332   1.343       .  A
N332        C333   1.343       .  A
C333        N334   1.356       .  A
C333        C928   1.507       .  S
C335        N336   1.373       .  A
C335        N340   1.370       .  A
C335        C572   1.500       .  S
N336        C337   1.359       .  A
C337        N338   1.338       .  A
N338        C339   1.337       .  A
C339        N340   1.360       .  A
C341        N342   1.367       .  A
C341        N346   1.376       .  A
C341        C557   1.486       .  S
N342        C343   1.354       .  A
C343        N344   1.337       .  A
C343        C931   1.505       .  S
N344        C345   1.338       .  A
C345        N346   1.365       .  A
C347        N348   1.364       .  A
C347        N352   1.366       .  A
C347        C548   1.496       .  S
N348        C349   1.359       .  A
C349        N350   1.351       .  A
N350        C351   1.351       .  A
C351        N352   1.357       .  A
C353        N354   1.368       .  A
C353        N358   1.373       .  A
C353        C536   1.499       .  S
N354        C355   1.356       .  A
C355        N356   1.342       .  A
N356        C357   1.342       .  A
C357        N358   1.361       .  A
Zn359       O363   1.906       .  S
Zn359       O364   1.939       .  S
Zn359       O368   1.978       .  S
Zn359       O375   1.992       .  S
Zn360       O363   1.971       .  S
Zn360       O365   2.018       .  S
Zn360       O367   2.046       .  S
Zn360       O371   2.033       .  S
Zn361       O363   1.960       .  S
Zn361       O366   2.069       .  S
Zn361       O369   2.010       .  S
Zn361       O372   2.012       .  S
Zn362       O363   1.955       .  S
Zn362       O370   2.007       .  S
Zn362       O373   1.994       .  S
Zn362       O374   2.048   1_565  S
O364        C376   1.266       .  A
O365        C377   1.274       .  A
O366        C378   1.276       .  A
O367        C376   1.277       .  A
O368        C378   1.269       .  A
O369        C377   1.273       .  A
O370        C379   1.276       .  A
O371        C380   1.276       .  A
O372        C379   1.274       .  A
O373        C380   1.269       .  A
O374        C381   1.273   1_545  A
O375        C381   1.270       .  A
C376       C1125   1.463       .  S
C377        C560   1.479       .  S
C378        C497   1.476       .  S
C379        C545   1.491       .  S
C380        C835   1.491   1_565  S
Zn382       O386   1.953       .  S
Zn382       O387   2.000   1_565  S
Zn382       O391   1.989       .  S
Zn382       O398   2.039   1_565  S
Zn383       O386   1.963       .  S
Zn383       O388   2.007       .  S
Zn383       O390   2.026       .  S
Zn383       O394   2.056       .  S
Zn384       O386   1.971       .  S
Zn384       O389   2.046       .  S
Zn384       O392   2.014       .  S
Zn384       O395   2.062   1_556  S
Zn385       O386   1.907   1_554  S
Zn385       O393   1.962       .  S
Zn385       O396   1.976       .  S
Zn385       O397   1.978       .  S
O387        C399   1.273       .  A
O388        C400   1.274       .  A
O389        C401   1.278       .  A
O390        C399   1.276   1_565  A
O391        C401   1.268       .  A
O392        C400   1.275       .  A
O393        C402   1.268       .  A
O394        C403   1.276   1_556  A
O395        C402   1.278       .  A
O396        C403   1.268       .  A
O397        C404   1.269       .  A
O398        C404   1.273   1_546  A
C400        C464   1.479       .  S
C401       C1077   1.498       .  S
C402        C581   1.475       .  S
C403        C569   1.470       .  S
C404        C895   1.472   1_565  S
C405        N406   1.364       .  A
C405        N410   1.378       .  A
C405        C512   1.494       .  S
N406        C407   1.347       .  A
C407        N408   1.335       .  A
C407        C422   1.501       .  S
N408        C409   1.337       .  A
C409        N410   1.370       .  A
C409       C1038   1.514       .  S
C411        N412   1.370       .  A
C411        N416   1.367       .  A
C411        C485   1.481       .  S
N412        C413   1.359       .  A
C413        N414   1.337       .  A
C413       C1035   1.511       .  S
N414        C415   1.338       .  A
C415        N416   1.355       .  A
C415        C425   1.497       .  S
C417        H418   1.111       .  S
C417        C423   1.529       .  S
C417        C422   1.524       .  S
C417        C421   1.541       .  S
C419        H420   1.111       .  S
C419        C425   1.542       .  S
C419        C424   1.532       .  S
C419        C426   1.537       .  S
C421        C424   1.407       .  D
C422        C425   1.403       .  D
C423        C445   1.501       .  S
C423        C426   1.407       .  D
C426        C451   1.514       .  S
C427        H428   1.111       .  S
C427        C433   1.537       .  S
C427        C432   1.538       .  S
C427        C431   1.529   1_455  S
C429        H430   1.111       .  S
C429        C435   1.528       .  S
C429        C434   1.535   1_455  S
C429        C436   1.529       .  S
C431       C1017   1.506       .  S
C431        C434   1.408       .  D
C432        C457   1.508       .  S
C432        C435   1.407       .  D
C433        C453   1.504       .  S
C433        C436   1.397       .  D
C434       C1013   1.504       .  S
C435        C439   1.501       .  S
C436        C447   1.494       .  S
C437        N438   1.367       .  A
C437        N442   1.363       .  A
C437        C524   1.470       .  S
N438        C439   1.360       .  A
C439        N440   1.340       .  A
N440        C441   1.339       .  A
C441        N442   1.352       .  A
C443        N444   1.376       .  A
C443        N448   1.372       .  A
C443        C500   1.501       .  S
N444        C445   1.365       .  A
C445        N446   1.330       .  A
N446        C447   1.328       .  A
C447        N448   1.354       .  A
C449        N450   1.364       .  A
C449        N454   1.362       .  A
C449        C461   1.485       .  S
N450        C451   1.360       .  A
C451        N452   1.355       .  A
N452        C453   1.356       .  A
C453        N454   1.355       .  A
C455        N456   1.370       .  A
C455        N460   1.374       .  A
C455        C476   1.498       .  S
N456        C457   1.359       .  A
C457        N458   1.338       .  A
N458        C459   1.338       .  A
C459        N460   1.359       .  A
C461        C462   1.408       .  A
C461        C466   1.415       .  A
C462        C463   1.398       .  A
C462        H471   1.082       .  S
C463        C464   1.413       .  A
C463        S467   1.804       .  S
C464        C465   1.405       .  A
C465        C466   1.397       .  A
C465        H472   1.083       .  S
C466        S468   1.800       .  S
S467        H470   1.407       .  S
S468        H469   1.408       .  S
C473       C1005   1.496   1_455  S
C473        C474   1.407       .  A
C473        C478   1.422       .  A
C474        C475   1.400       .  A
C474       H1087   1.085   1_455  S
C475        C476   1.421       .  A
C475        S479   1.803       .  S
C476        C477   1.407       .  A
C477        C478   1.402       .  A
C477        H484   1.082       .  S
C478        S480   1.813   1_565  S
S479        H482   1.408       .  S
S480        H481   1.407       .  S
H483       C1078   1.084       .  S
C485        C486   1.409       .  A
C485        C490   1.413       .  A
C486        C487   1.399       .  A
C486        H495   1.082       .  S
C487        C488   1.410       .  A
C487        S491   1.804       .  S
C488        C489   1.405       .  A
C489        C490   1.393       .  A
C490        S492   1.801       .  S
S492        H493   1.407       .  S
C497        C498   1.405       .  A
C497        C502   1.404       .  A
C498        C499   1.416       .  A
C498        H507   1.082       .  S
C499        C500   1.423       .  A
C499        S503   1.809       .  S
C500        C501   1.409       .  A
C501        C502   1.390       .  A
C501        H508   1.083       .  S
C502        S504   1.803       .  S
S503        H506   1.407       .  S
S504        H505   1.407       .  S
C509        C510   1.405       .  A
C510        C511   1.407       .  A
C510        H519   1.084       .  S
C511        C512   1.418       .  A
C511        S515   1.799       .  S
C512        C513   1.411       .  A
C513        H520   1.083       .  S
C514        S516   1.807   1_545  S
S515        H518   1.407       .  S
S516        H517   1.407       .  S
C521        C980   1.467   1_455  S
C521        C522   1.403       .  A
C521        C526   1.410       .  A
C522        C523   1.388       .  A
C522        H531   1.085       .  S
C523        C524   1.411       .  A
C523        S527   1.806       .  S
C524        C525   1.406       .  A
C525        C526   1.403       .  A
C525        H532   1.083       .  S
C526        S528   1.802       .  S
S527        H530   1.407       .  S
S528       H1133   1.406   1_455  S
H529       S1132   1.406       .  S
C533        C682   1.494   1_455  S
C533        C534   1.403       .  A
C533        C538   1.421   1_455  A
C534        C535   1.394       .  A
C534        H543   1.084       .  S
C535        C536   1.420       .  A
C535        S539   1.798       .  S
C536        C537   1.409       .  A
C537        C538   1.407   1_455  A
C537        H544   1.083       .  S
C538        S842   1.809       .  S
S539        H542   1.407       .  S
S540        C840   1.804       .  S
S540        H541   1.408   1_545  S
C545        C546   1.407       .  A
C545        C550   1.415       .  A
C546        C547   1.402       .  A
C546        H555   1.082       .  S
C547        C548   1.422       .  A
C547        S551   1.811   1_565  S
C548        C549   1.410       .  A
C549        C550   1.398       .  A
C549        H556   1.083       .  S
C550        S552   1.804       .  S
S551        H554   1.407       .  S
S552        H553   1.408       .  S
C557        C558   1.405       .  A
C557        C562   1.412       .  A
C558        C559   1.397       .  A
C558        H567   1.084       .  S
C559        C560   1.416       .  A
C559        S563   1.804       .  S
C560        C561   1.404       .  A
C561        C562   1.405       .  A
C561        H568   1.083       .  S
C562        S564   1.802       .  S
S563        H566   1.407       .  S
S564        H565   1.407       .  S
C569        C570   1.400       .  A
C569        C574   1.404       .  A
C570        C571   1.408       .  A
C570        H579   1.084       .  S
C571        C572   1.424       .  A
C571        S575   1.808       .  S
C572        C573   1.409       .  A
C573        C574   1.396       .  A
C573        H580   1.083       .  S
C574        S576   1.798   1_565  S
S575        H578   1.407       .  S
S576        H577   1.407   1_545  S
C581        C582   1.404       .  A
C581        C586   1.411       .  A
C582        C583   1.393       .  A
C582        H591   1.083       .  S
C583        C584   1.411       .  A
C583        S587   1.805       .  S
C584        C585   1.408       .  A
C585        C586   1.406       .  A
C585        H592   1.082       .  S
C586        S588   1.801       .  S
S587        H590   1.407       .  S
S588        H589   1.406       .  S
C593        C706   1.469   1_455  S
C593        C594   1.403       .  A
C593       C1202   1.409       .  A
C594        C595   1.404       .  A
C594        H603   1.084       .  S
C595        C596   1.418       .  A
C595        S599   1.799       .  S
C596        C597   1.408       .  A
C597       C1202   1.391       .  A
C597        H604   1.084       .  S
C598       C1197   1.407       .  A
C598       C1201   1.391       .  A
S599        H602   1.407       .  S
S600        H601   1.407       .  S
C605        N606   1.366       .  A
C605        N610   1.377       .  A
C605        C898   1.488       .  S
N606        C607   1.351       .  A
C607        N608   1.332       .  A
C607        C627   1.502       .  S
N608        C609   1.335       .  A
C609        N610   1.366       .  A
C609        C620   1.508       .  S
C611        H612   1.111       .  S
C611        C617   1.530       .  S
C611        C616   1.540   1_545  S
C611        C615   1.542       .  S
C613        H614   1.111       .  S
C613        C619   1.536   1_545  S
C613        C618   1.538       .  S
C613        C620   1.541       .  S
C615        C647   1.514       .  S
C615        C618   1.410       .  D
C616        C953   1.508       .  S
C616        C619   1.398       .  D
C617        C657   1.517       .  S
C617        C620   1.411       .  D
C618        C633   1.514       .  S
C619        C941   1.501       .  S
C621        H622   1.111       .  S
C621        C627   1.526       .  S
C621        C626   1.536       .  S
C621        C625   1.529       .  S
C623        H624   1.111       .  S
C623        C629   1.535       .  S
C623        C628   1.538       .  S
C623        C630   1.546       .  S
C625        C641   1.498       .  S
C625        C628   1.400       .  D
C626        C629   1.407       .  D
C627        C630   1.407       .  D
C628        C653   1.510       .  S
C630        C659   1.509       .  S
C631        N632   1.367       .  A
C631        N636   1.367       .  A
C631        C886   1.472       .  S
N632        C633   1.359       .  A
C633        N634   1.346       .  A
N634        C635   1.346       .  A
C635        N636   1.357       .  A
C637        N638   1.373       .  A
C637        N642   1.370       .  A
C637        C874   1.497       .  S
N638        C639   1.359       .  A
C639        N640   1.335       .  A
C639        C921   1.498       .  S
N640        C641   1.335       .  A
C641        N642   1.360       .  A
C643        N644   1.366       .  A
C643        N648   1.374       .  A
C643        C859   1.477       .  S
N644        C645   1.354       .  A
C645        N646   1.338       .  A
N646        C647   1.339       .  A
C647        N648   1.364       .  A
C649        N650   1.364       .  A
C649        N654   1.366       .  A
C649        C850   1.491       .  S
N650        C651   1.358       .  A
C651        N652   1.353       .  A
C651        C918   1.513       .  S
N652        C653   1.354       .  A
C653        N654   1.359       .  A
C655        N656   1.371       .  A
C655        N660   1.369       .  A
C655        C838   1.488       .  S
N656        C657   1.361       .  A
C657        N658   1.343       .  A
N658        C659   1.342       .  A
C659        N660   1.356       .  A
Zn661       O665   1.899       .  S
Zn661       O666   1.942       .  S
Zn661       O670   1.961       .  S
Zn661       O677   1.956       .  S
Zn662       O665   1.958       .  S
Zn662       O667   2.019       .  S
Zn662       O669   2.053       .  S
Zn662       O673   2.015       .  S
Zn663       O665   1.958       .  S
Zn663       O668   2.063       .  S
Zn663       O671   2.016       .  S
Zn663       O674   2.018       .  S
Zn664       O665   1.962       .  S
Zn664       O672   2.007       .  S
Zn664       O675   2.003       .  S
Zn664       O676   2.042       .  S
O666        C678   1.265       .  A
O667        C679   1.275       .  A
O668        C680   1.276       .  A
O669        C678   1.276       .  A
O670        C680   1.267       .  A
O671        C679   1.275       .  A
O672        C681   1.275       .  A
O673        C682   1.275       .  A
O674        C681   1.275       .  A
O675        C682   1.269       .  A
O676        C683   1.274       .  A
O677        C683   1.266       .  A
C679        C862   1.476       .  S
C680        C799   1.470       .  S
C681        C847   1.481       .  S
C683       C1113   1.468       .  S
Zn684       O688   1.953       .  S
Zn684       O689   1.996       .  S
Zn684       O693   2.008       .  S
Zn684       O700   2.045       .  S
Zn685       O688   1.964       .  S
Zn685       O690   2.007       .  S
Zn685       O692   2.010       .  S
Zn685       O696   2.058       .  S
Zn686       O688   1.968       .  S
Zn686       O691   2.042       .  S
Zn686       O694   2.028       .  S
Zn686       O697   2.054   1_556  S
Zn687       O688   1.907   1_554  S
Zn687       O695   1.953       .  S
Zn687       O698   1.968       .  S
Zn687       O699   1.963       .  S
O689        C701   1.274       .  A
O690        C702   1.274       .  A
O691        C703   1.276       .  A
O692        C701   1.274       .  A
O693        C703   1.270       .  A
O694        C702   1.277       .  A
O695        C704   1.267       .  A
O696        C705   1.275   1_556  A
O697        C704   1.278       .  A
O698        C705   1.267       .  A
O699        C706   1.266       .  A
O700        C706   1.274   1_556  A
C701       C1092   1.478       .  S
C702        C766   1.483       .  S
C704        C883   1.472       .  S
C705        C871   1.470       .  S
C707        N708   1.374       .  A
C707        N712   1.382       .  A
C707        C814   1.504       .  S
N708        C709   1.354       .  A
C709        N710   1.327       .  A
C709        C724   1.500       .  S
N710        C711   1.329       .  A
C711        N712   1.368       .  A
C713        N714   1.365       .  A
C713        N718   1.361       .  A
C713        C787   1.487       .  S
N714        C715   1.360       .  A
C715        N716   1.354       .  A
N716        C717   1.355       .  A
C717        N718   1.355       .  A
C717        C727   1.501       .  S
C719        H720   1.111       .  S
C719        C725   1.539       .  S
C719        C724   1.525       .  S
C719        C723   1.538   1_545  S
C721        H722   1.111       .  S
C721        C727   1.543       .  S
C721        C726   1.534   1_545  S
C721        C728   1.533       .  S
C723       C1045   1.502       .  S
C723        C726   1.406       .  D
C724        C727   1.400       .  D
C725        C747   1.505       .  S
C725        C728   1.404       .  D
C726       C1063   1.514       .  S
C728        C753   1.511       .  S
C729        H730   1.111       .  S
C729        C735   1.538       .  S
C729        C734   1.530       .  S
C729        C733   1.529       .  S
C731        H732   1.111       .  S
C731        C737   1.546       .  S
C731        C736   1.544       .  S
C731        C738   1.534       .  S
C733        C736   1.411       .  D
C734        C759   1.507       .  S
C734        C737   1.410       .  D
C735        C755   1.505       .  S
C735        C738   1.401       .  D
C737        C741   1.520       .  S
C738        C749   1.502       .  S
C739        N740   1.372       .  A
C739        N744   1.368       .  A
C739        C826   1.479       .  S
N740        C741   1.360       .  A
C741        N742   1.346       .  A
N742        C743   1.345       .  A
C743        N744   1.355       .  A
C743       C1025   1.515       .  S
C745        N746   1.374       .  A
C745        N750   1.373       .  A
C745        C802   1.501       .  S
N746        C747   1.364       .  A
C747        N748   1.336       .  A
N748        C749   1.335       .  A
C749        N750   1.356       .  A
C751        N752   1.364       .  A
C751        N756   1.366       .  A
C751        C763   1.486       .  S
N752        C753   1.358       .  A
C753        N754   1.352       .  A
N754        C755   1.354       .  A
C755        N756   1.360       .  A
C757        N758   1.372       .  A
C757        N762   1.374       .  A
C757        C778   1.498       .  S
N758        C759   1.361       .  A
C759        N760   1.333       .  A
N760        C761   1.332       .  A
C761        N762   1.358       .  A
C761       C1028   1.508       .  S
C763        C764   1.407       .  A
C763        C768   1.416       .  A
C764        C765   1.401       .  A
C764        H773   1.083       .  S
C765        C766   1.414       .  A
C765        S769   1.804       .  S
C766        C767   1.404       .  A
C767        C768   1.397       .  A
C767        H774   1.084       .  S
C768        S770   1.801       .  S
S769        H772   1.407       .  S
S770        H771   1.407       .  S
C775        C776   1.408       .  A
C775        C780   1.423       .  A
C776        C777   1.403       .  A
C777        C778   1.420       .  A
C777        S781   1.803       .  S
C778        C779   1.406       .  A
C779        C780   1.402       .  A
C779        H786   1.081       .  S
C780        S782   1.814       .  S
S781        H784   1.408       .  S
S782        H783   1.407       .  S
C787        C788   1.410       .  A
C787        C792   1.415       .  A
C788        C789   1.401       .  A
C788        H797   1.083       .  S
C789        C790   1.413       .  A
C789        S793   1.803       .  S
C790       C1003   1.484       .  S
C790        C791   1.406       .  A
C791        C792   1.396       .  A
C791       H1100   1.084       .  S
C792        S794   1.801   1_655  S
S793       H1098   1.407       .  S
S794        H795   1.408   1_455  S
H796       S1095   1.407       .  S
H798       C1093   1.085       .  S
C799        C800   1.402       .  A
C799        C804   1.404       .  A
C800        C801   1.412       .  A
C800        H809   1.083       .  S
C801        C802   1.423       .  A
C801        S805   1.806       .  S
C802        C803   1.409       .  A
C803        C804   1.392       .  A
C803        H810   1.082       .  S
C804        S806   1.803       .  S
S805        H808   1.406       .  S
S806        H807   1.407       .  S
C811        C985   1.479       .  S
C811        C812   1.405       .  A
C811       C1118   1.408       .  A
C812        C813   1.410       .  A
C812        H821   1.085       .  S
C813        C814   1.419       .  A
C813        S817   1.797   1_655  S
C814        C815   1.411       .  A
C815       C1118   1.395       .  A
C815        H822   1.084       .  S
C816       C1113   1.409       .  A
C816       C1117   1.386       .  A
C816        S818   1.806       .  S
S817        H820   1.408   1_455  S
S818        H819   1.407       .  S
C823        C824   1.403       .  A
C823        C828   1.406       .  A
C824        C825   1.394       .  A
C824        H833   1.085       .  S
C825        C826   1.415       .  A
C825        S829   1.804       .  S
C826        C827   1.409       .  A
C827        C828   1.402       .  A
C827        H834   1.083       .  S
C828        S830   1.801       .  S
S829        H832   1.407       .  S
C835        C836   1.407       .  A
C835        C840   1.422       .  A
C836        C837   1.401       .  A
C836        H845   1.083       .  S
C837        C838   1.415       .  A
C837        S841   1.798       .  S
C838        C839   1.403       .  A
C839        C840   1.397       .  A
C839        H846   1.084       .  S
S841        H844   1.408       .  S
S842        H843   1.407       .  S
C847        C848   1.404       .  A
C847        C852   1.411       .  A
C848        C849   1.397       .  A
C848        H857   1.084       .  S
C849        C850   1.420       .  A
C849        S853   1.802       .  S
C850        C851   1.410       .  A
C851        C852   1.401       .  A
C851        H858   1.084       .  S
C852        S854   1.803       .  S
S853        H856   1.408       .  S
S854        H855   1.408       .  S
C859        C860   1.402       .  A
C859        C864   1.411       .  A
C860        C861   1.396       .  A
C860        H869   1.084       .  S
C861        C862   1.416       .  A
C861        S865   1.804       .  S
C862        C863   1.404       .  A
C863        C864   1.402       .  A
C863        H870   1.083       .  S
C864        S866   1.799       .  S
S865        H868   1.407       .  S
S866        H867   1.406       .  S
C871        C872   1.401       .  A
C871        C876   1.407       .  A
C872        C873   1.410       .  A
C872        H881   1.082       .  S
C873        C874   1.423       .  A
C873        S877   1.807       .  S
C874        C875   1.408       .  A
C875        C876   1.394       .  A
C875        H882   1.081       .  S
C876        S878   1.803       .  S
S877        H880   1.407       .  S
S878        H879   1.407       .  S
C883        C884   1.405       .  A
C883        C888   1.408       .  A
C884        C885   1.394       .  A
C884        H893   1.085       .  S
C885        C886   1.411       .  A
C885        S889   1.805       .  S
C886        C887   1.407       .  A
C887        C888   1.402       .  A
C887        H894   1.084       .  S
C888        S890   1.800       .  S
S889        H892   1.407       .  S
S890        H891   1.407       .  S
C895        C896   1.404       .  A
C896        C897   1.406       .  A
C896        H905   1.084       .  S
C897        C898   1.417       .  A
C897        S901   1.800       .  S
C898        C899   1.408       .  A
C899        H906   1.083       .  S
C900       S1204   1.807       .  S
S901        H904   1.407       .  S
S902       C1202   1.805   1_655  S
S902        H903   1.407       .  S
C907        N908   1.367       .  A
C907        N912   1.376       .  A
C907       C1200   1.487       .  S
N908        C909   1.350       .  A
C909        N910   1.329       .  A
C909        C929   1.501       .  S
N910        C911   1.332       .  A
C911        N912   1.364       .  A
C911        C922   1.507       .  S
C913        H914   1.111       .  S
C913        C919   1.528       .  S
C913        C918   1.535       .  S
C913        C917   1.538       .  S
C915        H916   1.111       .  S
C915        C921   1.536       .  S
C915        C920   1.532       .  S
C915        C922   1.541       .  S
C917        C949   1.503       .  S
C917        C920   1.407       .  D
C918        C921   1.401       .  D
C919        C959   1.511       .  S
C919        C922   1.408       .  D
C920        C935   1.507       .  S
C923        H924   1.110       .  S
C923        C929   1.530       .  S
C923        C928   1.540       .  S
C923        C927   1.530       .  S
C925        H926   1.111       .  S
C925        C931   1.532       .  S
C925        C930   1.539       .  S
C925        C932   1.539       .  S
C927        C943   1.499       .  S
C927        C930   1.399       .  D
C928        C931   1.404       .  D
C929        C932   1.407       .  D
C930        C955   1.509       .  S
C932        C961   1.508       .  S
C933        N934   1.367       .  A
C933        N938   1.367       .  A
C933       C1188   1.476       .  S
N934        C935   1.359       .  A
C935        N936   1.342       .  A
N936        C937   1.342       .  A
C937        N938   1.357       .  A
C939        N940   1.375       .  A
C939        N944   1.371       .  A
C939       C1176   1.499       .  S
N940        C941   1.359       .  A
C941        N942   1.335       .  A
N942        C943   1.336       .  A
C943        N944   1.360       .  A
C945        N946   1.372       .  A
C945        N950   1.368       .  A
C945       C1161   1.488       .  S
N946        C947   1.362       .  A
C947        N948   1.336       .  A
N948        C949   1.335       .  A
C949        N950   1.355       .  A
C951        N952   1.359       .  A
C951        N956   1.361       .  A
C951       C1152   1.468       .  S
N952        C953   1.352       .  A
C953        N954   1.357       .  A
N954        C955   1.358       .  A
C955        N956   1.359       .  A
C957        N958   1.367       .  A
C957        N962   1.368       .  A
C957       C1140   1.484       .  S
N958        C959   1.356       .  A
C959        N960   1.344       .  A
N960        C961   1.344       .  A
C961        N962   1.360       .  A
Zn963       O967   1.907       .  S
Zn963       O968   1.943       .  S
Zn963       O972   1.984       .  S
Zn963       O979   1.987       .  S
Zn964       O967   1.981       .  S
Zn964       O969   2.038       .  S
Zn964       O971   2.046   1_655  S
Zn964       O975   2.017   1_655  S
Zn965       O967   1.956       .  S
Zn965       O970   2.028       .  S
Zn965       O973   1.984       .  S
Zn965       O976   2.004       .  S
Zn966       O967   1.959       .  S
Zn966       O974   2.007       .  S
Zn966       O977   2.009       .  S
Zn966       O978   2.069   1_565  S
O968        C980   1.267       .  A
O969        C981   1.275       .  A
O970        C982   1.271       .  A
O971        C980   1.277   1_455  A
O972        C982   1.269       .  A
O973        C981   1.271       .  A
O974        C983   1.275       .  A
O975        C984   1.273       .  A
O976        C983   1.273       .  A
O977        C984   1.274   1_655  A
O978        C985   1.277       .  A
O979        C985   1.269   1_565  A
C981       C1164   1.490       .  S
C982       C1101   1.465       .  S
C983       C1149   1.472       .  S
Zn986       O990   1.957       .  S
Zn986       O991   2.002   1_565  S
Zn986       O995   1.998       .  S
Zn986      O1002   2.033   1_565  S
Zn987       O990   1.963       .  S
Zn987       O992   2.011       .  S
Zn987       O994   2.026       .  S
Zn987       O998   2.059       .  S
Zn988       O990   1.966       .  S
Zn988       O993   2.028       .  S
Zn988       O996   2.008       .  S
Zn988       O999   2.055   1_556  S
Zn989       O990   1.907   1_554  S
Zn989       O997   1.962       .  S
Zn989      O1000   1.976       .  S
Zn989      O1001   1.966       .  S
O991       C1003   1.274       .  A
O992       C1004   1.274       .  A
O993       C1005   1.275       .  A
O994       C1003   1.275   1_565  A
O995       C1005   1.269       .  A
O996       C1004   1.275       .  A
O997       C1006   1.267       .  A
O998       C1007   1.276   1_556  A
O999       C1006   1.277       .  A
O1000      C1007   1.268       .  A
O1001      C1008   1.268       .  A
O1002      C1008   1.273   1_546  A
C1004      C1068   1.478       .  S
C1006      C1185   1.471       .  S
C1007      C1173   1.471       .  S
C1009      N1010   1.361       .  A
C1009      N1014   1.371       .  A
C1009      C1116   1.480       .  S
N1010      C1011   1.346       .  A
C1011      N1012   1.339       .  A
C1011      C1026   1.497       .  S
N1012      C1013   1.341       .  A
C1013      N1014   1.365       .  A
C1015      N1016   1.368       .  A
C1015      N1020   1.367       .  A
C1015      C1089   1.482       .  S
N1016      C1017   1.357       .  A
C1017      N1018   1.337       .  A
N1018      C1019   1.338       .  A
C1019      N1020   1.355       .  A
C1019      C1029   1.497       .  S
C1021      H1022   1.111       .  S
C1021      C1027   1.527       .  S
C1021      C1026   1.528       .  S
C1021      C1025   1.543       .  S
C1023      H1024   1.111       .  S
C1023      C1029   1.538       .  S
C1023      C1028   1.531       .  S
C1023      C1030   1.537       .  S
C1025      C1028   1.407       .  D
C1026      C1029   1.401       .  D
C1027      C1049   1.500       .  S
C1027      C1030   1.406       .  D
C1030      C1055   1.512       .  S
C1031      H1032   1.110       .  S
C1031      C1037   1.530       .  S
C1031      C1036   1.538       .  S
C1031      C1035   1.529       .  S
C1033      H1034   1.111       .  S
C1033      C1039   1.531       .  S
C1033      C1038   1.540       .  S
C1033      C1040   1.533       .  S
C1035      C1038   1.413       .  D
C1036      C1061   1.503       .  S
C1036      C1039   1.404       .  D
C1037      C1057   1.509       .  S
C1037      C1040   1.399       .  D
C1039      C1043   1.505       .  S
C1040      C1051   1.490       .  S
C1041      N1042   1.366       .  A
C1041      N1046   1.364       .  A
C1041      C1128   1.466       .  S
N1042      C1043   1.358       .  A
C1043      N1044   1.343       .  A
N1044      C1045   1.343       .  A
C1045      N1046   1.353       .  A
C1047      N1048   1.375       .  A
C1047      N1052   1.371       .  A
C1047      C1104   1.496       .  S
N1048      C1049   1.364       .  A
C1049      N1050   1.327       .  A
N1050      C1051   1.327       .  A
C1051      N1052   1.353       .  A
C1053      N1054   1.363       .  A
C1053      N1058   1.364       .  A
C1053      C1065   1.482       .  S
N1054      C1055   1.357       .  A
C1055      N1056   1.355       .  A
N1056      C1057   1.356       .  A
C1057      N1058   1.358       .  A
C1059      N1060   1.367       .  A
C1059      N1064   1.377       .  A
C1059      C1080   1.498       .  S
N1060      C1061   1.355       .  A
C1061      N1062   1.337       .  A
N1062      C1063   1.336       .  A
C1063      N1064   1.362       .  A
C1065      C1066   1.407       .  A
C1065      C1070   1.415       .  A
C1066      C1067   1.400       .  A
C1066      H1075   1.083       .  S
C1067      C1068   1.412       .  A
C1067      S1071   1.803       .  S
C1068      C1069   1.404       .  A
C1069      C1070   1.396       .  A
C1069      H1076   1.084       .  S
C1070      S1072   1.803       .  S
S1071      H1074   1.407       .  S
S1072      H1073   1.407       .  S
C1077      C1078   1.405       .  A
C1077      C1082   1.424       .  A
C1078      C1079   1.401       .  A
C1079      C1080   1.424       .  A
C1079      S1083   1.804       .  S
C1080      C1081   1.405       .  A
C1081      C1082   1.403       .  A
C1081      H1088   1.082       .  S
C1082      S1084   1.813   1_565  S
S1083      H1086   1.408       .  S
S1084      H1085   1.407       .  S
C1089      C1090   1.409       .  A
C1089      C1094   1.414       .  A
C1090      C1091   1.399       .  A
C1090      H1099   1.084       .  S
C1091      C1092   1.413       .  A
C1091      S1095   1.804       .  S
C1092      C1093   1.404       .  A
C1093      C1094   1.392       .  A
C1094      S1096   1.800   1_655  S
S1096      H1097   1.408   1_455  S
C1101      C1102   1.402       .  A
C1101      C1106   1.403       .  A
C1102      C1103   1.409       .  A
C1102      H1111   1.083       .  S
C1103      C1104   1.422       .  A
C1103      S1107   1.808       .  S
C1104      C1105   1.412       .  A
C1105      C1106   1.391       .  A
C1105      H1112   1.082       .  S
C1106      S1108   1.805       .  S
S1107      H1110   1.407       .  S
S1108      H1109   1.407       .  S
C1113      C1114   1.405       .  A
C1114      C1115   1.405       .  A
C1114      H1123   1.084       .  S
C1115      C1116   1.416       .  A
C1115      S1119   1.800       .  S
C1116      C1117   1.406       .  A
C1117      H1124   1.084       .  S
C1118      S1120   1.806   1_545  S
S1119      H1122   1.407       .  S
S1120      H1121   1.407       .  S
C1125      C1126   1.403       .  A
C1125      C1130   1.409       .  A
C1126      C1127   1.389       .  A
C1126      H1135   1.085       .  S
C1127      C1128   1.411       .  A
C1127      S1131   1.806       .  S
C1128      C1129   1.405       .  A
C1129      C1130   1.400       .  A
C1129      H1136   1.084       .  S
C1130      S1132   1.802       .  S
S1131      H1134   1.407       .  S
C1137      C1138   1.406       .  A
C1137      C1142   1.418       .  A
C1138      C1139   1.402       .  A
C1138      H1147   1.084       .  S
C1139      C1140   1.417       .  A
C1139      S1143   1.804       .  S
C1140      C1141   1.404       .  A
C1141      C1142   1.396       .  A
C1141      H1148   1.084       .  S
S1143      H1146   1.407       .  S
S1144      H1145   1.408   1_455  S
C1149      C1150   1.403       .  A
C1149      C1154   1.414       .  A
C1150      C1151   1.391       .  A
C1150      H1159   1.085       .  S
C1151      C1152   1.411       .  A
C1151      S1155   1.807       .  S
C1152      C1153   1.404       .  A
C1153      C1154   1.402       .  A
C1153      H1160   1.085       .  S
C1154      S1156   1.803       .  S
S1155      H1158   1.407       .  S
S1156      H1157   1.407       .  S
C1161      C1162   1.408       .  A
C1161      C1166   1.415       .  A
C1162      C1163   1.408       .  A
C1162      H1171   1.082       .  S
C1163      C1164   1.413       .  A
C1163      S1167   1.807       .  S
C1164      C1165   1.407       .  A
C1165      C1166   1.397       .  A
C1165      H1172   1.082       .  S
C1166      S1168   1.810       .  S
S1167      H1170   1.405   1_655  S
S1168      H1169   1.407       .  S
C1173      C1174   1.401       .  A
C1173      C1178   1.405       .  A
C1174      C1175   1.410       .  A
C1174      H1183   1.083       .  S
C1175      C1176   1.424       .  A
C1175      S1179   1.809       .  S
C1176      C1177   1.408       .  A
C1177      C1178   1.394       .  A
C1177      H1184   1.081       .  S
C1178      S1180   1.801   1_565  S
S1179      H1182   1.407       .  S
S1180      H1181   1.406   1_545  S
C1185      C1186   1.403       .  A
C1185      C1190   1.409       .  A
C1186      C1187   1.394       .  A
C1186      H1195   1.085       .  S
C1187      C1188   1.412       .  A
C1187      S1191   1.804       .  S
C1188      C1189   1.408       .  A
C1189      C1190   1.403       .  A
C1189      H1196   1.084       .  S
C1190      S1192   1.802       .  S
S1191      H1194   1.407       .  S
S1192      H1193   1.406       .  S
C1197      C1198   1.402       .  A
C1198      C1199   1.402       .  A
C1198      H1207   1.085       .  S
C1199      C1200   1.417       .  A
C1199      S1203   1.799       .  S
C1200      C1201   1.409       .  A
C1201      H1208   1.084       .  S
S1203      H1206   1.407       .  S
S1204      H1205   1.407       .  S
