geometry optimzed in LAMMPS
_audit_creation_date              2020-11-30 
_audit_creation_method            'lammps2cif' 
_symmetry_space_group_name_H-M    'P1' 
_symmetry_Int_Tables_number       1 
_symmetry_cell_setting            triclinic 
loop_ 
_symmetry_equiv_pos_as_xyz 
  x,y,z 
_cell_length_a                    27.91105138 
_cell_length_b                    27.99259685827681 
_cell_length_c                    27.853042241809813 
_cell_angle_alpha                 90.54716817497436 
_cell_angle_beta                  89.72016275866176 
_cell_angle_gamma                 90.10045997552112 
loop_ 
_atom_site_label 
_atom_site_type_symbol 
_atom_site_fract_x 
_atom_site_fract_y 
_atom_site_fract_z 
_atom_site_charge 
C1          C  0.84686411  0.83037168  0.83130219     0.86300
C2          C  0.88515411  0.80755812  0.86310724    -0.53900
C3          C  0.90716604  0.83943854  0.89298237     0.09300
C4          C  0.89107159  0.89088592  0.88748710     0.20200
C5          C  0.81369365  0.85798296  0.86543856    -0.54600
C6          C  0.83689235  0.88920797  0.89487677     0.09400
C7          C  0.87511725  0.86928295  0.80438049    -0.54200
C8          C  0.89772710  0.90075324  0.83420671     0.09900
H9          H  0.89436650  0.76988016  0.86206168     0.14500
H10         H  0.91028292  0.91639307  0.91144419     0.00200
H11         H  0.77497249  0.85393040  0.86534772     0.14800
H12         H  0.88044314  0.87084158  0.76588926     0.14500
C13         C  0.97193942  0.97093818  0.48499273     0.42300
N14         N  0.94854776  0.91722151  0.43180798     0.01200
C15         C  0.73945379  0.92414304  0.28854918    -0.06700
H16         H  0.71767977  0.87733892  0.47344104     0.06700
C17         C  0.79967646  0.72757833  0.44416056    -0.07000
Co18       Co  0.85836792  0.94729521  0.37915688     0.74200
N19         N  0.77473239  0.90149481  0.42740358    -0.26200
Co20       Co  0.77537341  0.85468816  0.36923965     0.74100
C21         C  0.75391553  0.74075736  0.46768073     0.42400
N22         N  0.91581359  0.77278721  0.41784602     0.00800
N23         N  0.77543310  0.79509564  0.41588729     0.00900
N24         N  0.79126014  0.98538082  0.29653573    -0.47100
H25         H  0.90486291  0.01640912  0.47025186     0.06700
N26         N  0.80611616  0.93670862  0.43099956     0.01200
N27         N  0.78258629  0.80896665  0.31092650     0.00900
C28         C  0.77257148  0.77545812  0.24247297     0.42600
N29         N  0.94646079  0.80837879  0.42416606    -0.25700
C30         C  0.91961453  0.98195453  0.29354854    -0.06600
N31         N  0.98385878  0.92921719  0.46212414    -0.46800
N32         N  0.75467366  0.80857456  0.27294318    -0.47000
C33         C  0.96402597  0.96628802  0.27140140     0.42300
N34         N  0.80293289  0.94948038  0.32576645     0.01200
N35         N  0.95854615  0.81122710  0.31992860    -0.25700
N36         N  0.91366753  0.94909597  0.43212305    -0.26200
N37         N  0.92624599  0.77727360  0.31316059     0.00800
H38         H  0.02959280  0.82185874  0.29005945     0.06700
H39         H  0.83742589  0.72569012  0.25369956     0.06800
N40         N  0.77237793  0.91360569  0.32234044    -0.26200
N41         N  0.80997297  0.76310601  0.41279862    -0.25800
N42         N  0.94744440  0.91853465  0.32724707     0.01200
C43         C  0.76436397  0.94194843  0.49540026     0.42600
C44         C  0.97073818  0.80104048  0.46440241    -0.07100
N45         N  0.81770131  0.77753768  0.30774595    -0.25800
H46         H  0.82100499  0.69583014  0.44927011     0.06700
N47         N  0.80083407  0.96194607  0.47082012    -0.47100
H48         H  0.99909747  0.82342628  0.47849838     0.06700
C49         C  0.98450295  0.75785764  0.26341160     0.42400
C50         C  0.92501109  0.98386986  0.46451807    -0.06600
Co51       Co  0.95108621  0.86378787  0.37600447     0.73800
N52         N  0.91839437  0.74030055  0.45154729    -0.46800
C53         C  0.75169250  0.97194477  0.27098664     0.42700
N54         N  0.97996232  0.92755213  0.29424226    -0.46800
Co55       Co  0.86746076  0.77163701  0.36242423     0.73900
C56         C  0.81419817  0.75428839  0.26575974    -0.07100
C57         C  0.74671155  0.90195388  0.46641689    -0.06700
N58         N  0.91204751  0.95003258  0.32792347    -0.26200
N59         N  0.74155544  0.78308430  0.44764087    -0.46900
H60         H  0.70886666  0.90219329  0.27932117     0.06700
C61         C  0.99645894  0.80178103  0.29063393    -0.07100
Cl62       Cl  0.86321258  0.85943445  0.37161293    -0.50100
C63         C  0.95133474  0.75652329  0.48254341     0.42500
H64         H  0.89793730  0.01308790  0.28654761     0.06700
N65         N  0.94041594  0.74491013  0.28028703    -0.46800
C66         C  0.76941545  0.48611205  0.95047479     0.42300
N67         N  0.78440290  0.42007307  0.91474578     0.01200
C68         C  0.99547349  0.29552711  0.92978163    -0.06700
H69         H  0.02493238  0.46914578  0.90397267     0.06700
C70         C  0.92877928  0.44684433  0.73715925    -0.07000
Co71       Co  0.87311571  0.37564724  0.95279643     0.74200
N72         N  0.95909980  0.42938342  0.91445801    -0.26200
Co73       Co  0.95958269  0.37350872  0.86135266     0.74100
C74         C  0.97409381  0.46895653  0.75037824     0.42400
N75         N  0.81050893  0.41216591  0.77418101     0.00800
N76         N  0.95358082  0.42128640  0.80571902     0.00900
N77         N  0.93885002  0.29868714  0.98853672    -0.47100
H78         H  0.83382915  0.47688357  0.00140227     0.06700
N79         N  0.92646158  0.43054692  0.94907852     0.01200
N80         N  0.96225882  0.31783816  0.80727812     0.00900
C81         C  0.98633577  0.26494611  0.75399987     0.42600
N82         N  0.77725505  0.41043805  0.80800189    -0.25700
C83         C  0.80949679  0.29047912  0.99587379    -0.06600
N84         N  0.75388245  0.45594900  0.91586583    -0.46800
N85         N  0.99905716  0.28951172  0.79469228    -0.47000
C86         C  0.76578847  0.26378880  0.98192070     0.42300
N87         N  0.92831667  0.32691871  0.95255654     0.01200
N88         N  0.78918352  0.30678084  0.81941256    -0.25700
N89         N  0.81855086  0.42461944  0.94708248    -0.26200
N90         N  0.82082933  0.30710004  0.78414011     0.00800
H91         H  0.73461925  0.25683226  0.84038216     0.06700
H92         H  0.91728032  0.27374194  0.71059588     0.06800
N93         N  0.96100080  0.32601278  0.91792946    -0.26200
N94         N  0.91926858  0.41731631  0.77331462    -0.25800
N95         N  0.78635774  0.31505228  0.92634532     0.01200
C96         C  0.97746955  0.48652249  0.96988385     0.42600
C97         C  0.74098225  0.43983130  0.79530226    -0.07100
N98         N  0.92675839  0.31452261  0.77615260    -0.25800
H99         H  0.90942694  0.44825330  0.70365506     0.06700
N100        N  0.93639008  0.46350995  0.98277152    -0.47100
H101        H  0.70798004  0.44472558  0.81523876     0.06700
C102        C  0.78278134  0.24126792  0.77484446     0.42400
C103        C  0.81178491  0.46489551  0.97189124    -0.06600
Co104      Co  0.78335551  0.36294540  0.86719767     0.73800
N105        N  0.79884388  0.44198693  0.73878558    -0.46800
C106        C  0.98060921  0.27795964  0.97652874     0.42700
N107        N  0.75369242  0.28212888  0.93850948    -0.46800
Co108      Co  0.86897897  0.36303054  0.77636173     0.73900
C109        C  0.93824327  0.28172174  0.74223574    -0.07100
C110        C  0.99232762  0.46346783  0.92428936    -0.06700
N111        N  0.81979493  0.32065826  0.95932900    -0.26200
N112        N  0.98735420  0.45164458  0.79310999    -0.46900
H113        H  0.02835596  0.28956407  0.90992857     0.06700
C114        C  0.76418451  0.26632747  0.81708922    -0.07100
Cl115      Cl  0.87142249  0.36880535  0.86445869    -0.50100
C116        C  0.75526320  0.46151899  0.74936032     0.42500
H117        H  0.82908569  0.28856975  0.02920660     0.06700
N118        N  0.81783348  0.26879512  0.75628035    -0.46800
C119        C  0.47650040  0.98550043  0.98238469     0.42300
N120        N  0.42187097  0.96569051  0.92931202     0.01200
C121        C  0.29070633  0.74880328  0.92179999    -0.06700
H122        H  0.47571224  0.73587171  0.90120989     0.06700
C123        C  0.46384235  0.81392906  0.74093427    -0.07000
Co124      Co  0.36812001  0.87432547  0.95384271     0.74200
N125        N  0.42573808  0.79280407  0.91580040    -0.26200
Co126      Co  0.37572649  0.79071772  0.86076991     0.74100
C127        C  0.48086600  0.76562626  0.75296184     0.42400
N128        N  0.43319147  0.93444652  0.78686031     0.00800
N129        N  0.42972504  0.79125426  0.80692687     0.00900
N130        N  0.28765873  0.80078745  0.98387556    -0.47100
H131        H  0.45865937  0.91847584  0.02683487     0.06700
N132        N  0.42235441  0.82468733  0.95102112     0.01200
N133        N  0.32583245  0.79635788  0.80684652     0.00900
C134        C  0.26572472  0.78527183  0.76184071     0.42600
N135        N  0.42995702  0.96585801  0.82241214    -0.25700
C136        C  0.27256949  0.92903352  0.97309137    -0.06600
N137        N  0.45488394  0.99863783  0.94075954    -0.46800
N138        N  0.28923568  0.76753048  0.79970979    -0.47000
C139        C  0.24944103  0.97089646  0.95280237     0.42300
N140        N  0.31807665  0.81607601  0.94990101     0.01200
N141        N  0.32550191  0.96984819  0.81035567    -0.25700
N142        N  0.41954557  0.93097995  0.96099223    -0.26200
N143        N  0.32771921  0.93767681  0.77548233     0.00800
H144        H  0.28456518  0.03530910  0.81807644     0.06700
H145        H  0.28381762  0.85050918  0.71545529     0.06800
N146        N  0.32125699  0.78544863  0.91369045    -0.26200
N147        N  0.43204562  0.82648277  0.77578361    -0.25800
N148        N  0.31647332  0.95992716  0.91740270     0.01200
C149        C  0.48440183  0.78460668  0.96792290     0.42600
C150        C  0.46742960  0.99516497  0.82075643    -0.07100
N151        N  0.32795296  0.83123203  0.77524762    -0.25800
H152        H  0.47012399  0.83364556  0.70829068     0.06700
N153        N  0.45657806  0.82081393  0.98302966    -0.47100
H154        H  0.47367445  0.02523924  0.84459146     0.06700
C155        C  0.27327983  0.98804092  0.75060617     0.42400
C156        C  0.45256373  0.94025334  0.99559070    -0.06600
Co157      Co  0.37340269  0.96629946  0.87009996     0.73800
N158        N  0.47122730  0.94161848  0.75945978    -0.46800
C159        C  0.26801728  0.75862748  0.96848857     0.42700
N160        N  0.27913589  0.98863156  0.91923428    -0.46800
Co161      Co  0.38056637  0.88264093  0.77744566     0.73900
C162        C  0.29131133  0.82715696  0.74518439    -0.07100
C163        C  0.46421524  0.76568712  0.92337694    -0.06700
N164        N  0.31386901  0.92494659  0.94890210    -0.26200
N165        N  0.45698975  0.75412340  0.79389103    -0.46900
H166        H  0.28799349  0.71684367  0.89985104     0.06700
C167        C  0.29281942  0.00329622  0.79764227    -0.07100
Cl168      Cl  0.37447874  0.87843693  0.86555881    -0.50100
C169        C  0.49472937  0.97912681  0.77910987     0.42500
H170        H  0.26064634  0.90615450  0.00187124     0.06700
N171        N  0.29776654  0.94735039  0.73944516    -0.46800
C172        C  0.39890554  0.33592031  0.90955358     0.86300
C173        C  0.42442111  0.37815409  0.88694031    -0.53900
C174        C  0.39736341  0.40165658  0.85462212     0.09300
C175        C  0.34615841  0.38198285  0.84869038     0.20200
C176        C  0.35357512  0.35803941  0.93171095    -0.54600
C177        C  0.32598830  0.38205580  0.89983291     0.09400
C178        C  0.38075610  0.30532193  0.86769917    -0.54200
C179        C  0.35194667  0.32874033  0.83636288     0.09900
H180        H  0.46160103  0.38736817  0.89397894     0.14500
H181        H  0.32372661  0.40193224  0.82336453     0.00200
H182        H  0.34463683  0.35873855  0.96951449     0.14800
H183        H  0.38823639  0.26731613  0.86493622     0.14500
C184        C  0.39855468  0.83774823  0.39734848     0.86300
C185        C  0.36286919  0.87062584  0.42394203    -0.53900
C186        C  0.33554867  0.89731448  0.39387995     0.09300
C187        C  0.34612974  0.88978283  0.34070643     0.20200
C188        C  0.36707813  0.80888171  0.36299473    -0.54600
C189        C  0.34029705  0.83619771  0.33323820     0.09400
C190        C  0.42731459  0.87188605  0.36577384    -0.54200
C191        C  0.39978662  0.89854767  0.33601232     0.09900
H192        H  0.35768765  0.87317897  0.46233719     0.14500
H193        H  0.32407086  0.91188757  0.31643931     0.00200
H194        H  0.36685235  0.77006221  0.36145786     0.14800
H195        H  0.46609971  0.87505816  0.36711003     0.14500
C196        C  0.90732123  0.40981809  0.33957232     0.86300
C197        C  0.86901004  0.43427934  0.37066067    -0.53900
C198        C  0.83881495  0.40283881  0.39240456     0.09300
C199        C  0.85066043  0.35022137  0.38371633     0.20200
C200        C  0.93289496  0.37726187  0.37539277    -0.54600
C201        C  0.90315443  0.34578249  0.39769591     0.09400
C202        C  0.88011538  0.37616749  0.30608342    -0.54200
C203        C  0.85137050  0.34474844  0.32919068     0.09900
H204        H  0.86590596  0.47261607  0.37584251     0.14500
H205        H  0.82643082  0.32500820  0.40262091     0.00200
H206        H  0.97072365  0.37918271  0.38393167     0.14800
H207        H  0.88363575  0.37690613  0.26720549     0.14500
C208        C  0.01655264  0.23058597  0.72412205     0.42300
N209        N  0.06525769  0.20661936  0.66686794     0.01200
C210        C  0.05107840  0.98694678  0.53960194    -0.06700
H211        H  0.09046300  0.97462633  0.72114511     0.06700
C212        C  0.25174885  0.06071808  0.69163688    -0.07000
Co213      Co  0.03215461  0.11412803  0.61977748     0.74200
N214        N  0.07468650  0.03352608  0.67495776    -0.26200
Co215      Co  0.12315554  0.02933899  0.61836736     0.74100
C216        C  0.24099264  0.01570959  0.71645404     0.42400
N217        N  0.20736553  0.17517618  0.65733241     0.00800
N218        N  0.18373873  0.03320772  0.66575402     0.00900
N219        N  0.99307268  0.04262254  0.54075879    -0.47100
H220        H  0.96851418  0.16455154  0.71229192     0.06700
N221        N  0.04039175  0.06595657  0.67516600     0.01200
N222        N  0.16986715  0.03143564  0.56118448     0.00900
C223        C  0.20555455  0.01386749  0.49578118     0.42600
N224        N  0.17276889  0.20735757  0.65827649    -0.25700
C225        C  0.99428217  0.17224691  0.53383295    -0.06600
N226        N  0.05633119  0.24224449  0.69807814    -0.46800
N227        N  0.17107030  0.99960280  0.52615971    -0.47000
C228        C  0.00888075  0.21639292  0.51066639     0.42300
N229        N  0.02910245  0.05512264  0.57001799     0.01200
N230        N  0.16949776  0.20661708  0.55392345    -0.25700
N231        N  0.03284843  0.17229550  0.66943842    -0.26200
N232        N  0.20419770  0.17459111  0.55200196     0.00800
H233        H  0.15868032  0.27319827  0.51638056     0.06700
H234        H  0.25557892  0.07936443  0.50201117     0.06800
N235        N  0.06354569  0.02280095  0.57034303    -0.26200
N236        N  0.21507743  0.06832374  0.66090274    -0.25800
N237        N  0.06190326  0.19785803  0.56167523     0.01200
C238        C  0.02697795  0.02503269  0.73836486     0.42600
C239        C  0.18148178  0.23922410  0.69297104    -0.07100
N240        N  0.20190033  0.06587710  0.55599500    -0.25800
H241        H  0.28377070  0.08239178  0.69412052     0.06700
N242        N  0.01114297  0.06193655  0.71215197    -0.47100
H243        H  0.16006439  0.27034503  0.70154860     0.06700
C244        C  0.22480152  0.22723630  0.49762264     0.42400
C245        C  0.00064575  0.18448048  0.70382980    -0.06600
Co246      Co  0.11719031  0.20517248  0.61009969     0.73800
N247        N  0.24018458  0.18316627  0.69035550    -0.46800
C248        C  0.00392872  0.99975877  0.51951886     0.42700
N249        N  0.05101409  0.22999758  0.52942598    -0.46800
Co250      Co  0.20804987  0.12084592  0.60634517     0.73900
C251        C  0.22627295  0.05784369  0.51535776    -0.07100
C252        C  0.06919463  0.00583700  0.71347694    -0.06700
N253        N  0.02917210  0.16385222  0.56532727    -0.26200
N254        N  0.19835874  0.00073612  0.69758947    -0.46900
H255        H  0.07151825  0.95465313  0.53345852     0.06700
C256        C  0.17909095  0.24075713  0.52090616    -0.07100
Cl257      Cl  0.12016780  0.11738105  0.61356838    -0.50100
C258        C  0.22545523  0.22243149  0.71434884     0.42500
H259        H  0.96098111  0.15261924  0.53103619     0.06700
N260        N  0.23786049  0.18586779  0.51956134    -0.46800
C261        C  0.03453152  0.74599169  0.01612182     0.42300
N262        N  0.07121051  0.68037710  0.02786749     0.01200
C263        C  0.06939914  0.53783354  0.22522212    -0.06700
H264        H  0.08599255  0.71220736  0.27159902     0.06700
C265        C  0.24585203  0.70651322  0.15420979    -0.07000
Co266      Co  0.03530241  0.62869462  0.11418042     0.74200
N267        N  0.07532282  0.67832346  0.20216485    -0.26200
Co268      Co  0.12950289  0.62426823  0.19598521     0.74100
C269        C  0.23154921  0.73316376  0.19667381     0.42400
N270        N  0.21301773  0.66911414  0.04633839     0.00800
N271        N  0.18425278  0.67396868  0.18818581     0.00900
N272        N  0.00784463  0.54145702  0.17252366    -0.47100
H273        H  0.98544837  0.73398838  0.08222544     0.06700
N274        N  0.03890728  0.67917904  0.17200023     0.01200
N275        N  0.18220981  0.56884902  0.19433124     0.00900
C276        C  0.23226723  0.51342437  0.21767135     0.42600
N277        N  0.17739181  0.67171999  0.01557373    -0.25700
C278        C  0.99221661  0.54562913  0.04682070    -0.06600
N279        N  0.06919295  0.71721730  0.99902009    -0.46800
N280        N  0.19224334  0.53859711  0.22984251    -0.47000
C281        C  0.00459083  0.52361852  0.99984140     0.42300
N282        N  0.03952949  0.57552821  0.16500131     0.01200
N283        N  0.16440160  0.56778000  0.01889270    -0.25700
N284        N  0.03938040  0.68245560  0.06308123    -0.26200
N285        N  0.20006104  0.56361302  0.04957367     0.00800
H286        H  0.13856757  0.52385481  0.96074809     0.06700
H287        H  0.27843235  0.52440072  0.14955403     0.06800
N288        N  0.07534171  0.57448122  0.19590484    -0.26200
N289        N  0.21518751  0.67022120  0.15227751    -0.25800
N290        N  0.05881555  0.57614347  0.02126973     0.01200
C291        C  0.01666709  0.72807325  0.22996279     0.42600
C292        C  0.18872056  0.70536466  0.98271826    -0.07100
N293        N  0.21347928  0.56605504  0.15866678    -0.25800
H294        H  0.27478912  0.71296239  0.12916311     0.06700
N295        N  0.00318071  0.70717849  0.18777716    -0.47100
H296        H  0.16728509  0.71425469  0.95192245     0.06700
C297        C  0.20240561  0.50058486  0.00602460     0.42400
C298        C  0.01446236  0.72289788  0.05882419    -0.06600
Co299      Co  0.11792411  0.62416075  0.02007199     0.73800
N300        N  0.24831804  0.69995951  0.03630756    -0.46800
C301        C  0.02513080  0.51594481  0.20933559     0.42700
N302        N  0.04639505  0.54499685  0.98680615    -0.46800
Co303      Co  0.21153549  0.61672938  0.10152238     0.73900
C304        C  0.24660983  0.53260303  0.17033010    -0.07100
C305        C  0.06494981  0.70852791  0.23926806    -0.06700
N306        N  0.02762389  0.57752053  0.05700380    -0.26200
N307        N  0.19318842  0.71113933  0.21620333    -0.46900
H308        H  0.09216554  0.52915807  0.25520233     0.06700
C309        C  0.16331707  0.52985471  0.98994087    -0.07100
Cl310      Cl  0.12354055  0.62345311  0.10807068    -0.50100
C311        C  0.23556058  0.72531936  0.99691172     0.42500
H312        H  0.96060578  0.53979537  0.06861232     0.06700
N313        N  0.22480356  0.52397134  0.04222419    -0.46800
C314        C  0.72330597  0.00228162  0.23598005     0.42300
N315        N  0.67382386  0.05696540  0.21064643     0.01200
C316        C  0.54026248  0.05823766  0.99536018    -0.06700
H317        H  0.72392409  0.08065615  0.97449683     0.06700
C318        C  0.71522790  0.24222656  0.06128177    -0.07000
Co319      Co  0.62213057  0.02955063  0.11853482     0.74200
N320        N  0.67872455  0.06740391  0.03550341    -0.26200
Co321      Co  0.62833939  0.12135934  0.03392996     0.74100
C322        C  0.73415294  0.23156742  0.01297382     0.42400
N323        N  0.68231734  0.19779563  0.17905172     0.00800
N324        N  0.68221546  0.17672553  0.03501274     0.00900
N325        N  0.53766434  0.00002655  0.05039958    -0.47100
H326        H  0.70588697  0.95441139  0.17027484     0.06700
N327        N  0.67668466  0.03262615  0.06732704     0.01200
N328        N  0.57801289  0.17451416  0.03943149     0.00900
C329        C  0.51935235  0.22002926  0.02647436     0.42600
N330        N  0.67940786  0.16352582  0.21118655    -0.25700
C331        C  0.52913408  0.00584586  0.17582239    -0.06600
N332        N  0.70314334  0.04531129  0.24651062    -0.46800
N333        N  0.54314925  0.18204505  0.00886545    -0.47000
C334        C  0.50605447  0.02542823  0.21886298     0.42300
N335        N  0.57122230  0.03255525  0.06144295     0.01200
N336        N  0.57473294  0.17167168  0.21302020    -0.25700
N337        N  0.67228145  0.02397925  0.17644568    -0.26200
N338        N  0.57768790  0.20704305  0.18221248     0.00800
H339        H  0.53152573  0.16135322  0.27691825     0.06700
H340        H  0.53552103  0.26747625  0.09226308     0.06800
N341        N  0.57376919  0.06717500  0.02956820    -0.26200
N342        N  0.68318347  0.20731100  0.07144894    -0.25800
N343        N  0.56903733  0.06584691  0.20410545     0.01200
C344        C  0.73630533  0.01506825  0.02226262     0.42600
C345        C  0.71565356  0.16806491  0.24185479    -0.07100
N346        N  0.57900792  0.20629904  0.07482601    -0.25800
H347        H  0.72083964  0.27408012  0.08281705     0.06700
N348        N  0.71015501  0.00010480  0.06012032    -0.47100
H349        H  0.72174507  0.14629045  0.27309587     0.06700
C350        C  0.52207482  0.22984107  0.23274699     0.42400
C351        C  0.70170614  0.98786231  0.18957868    -0.06600
Co352      Co  0.62426400  0.11442376  0.21041253     0.73800
N353        N  0.71890927  0.22663735  0.18639484    -0.46800
C354        C  0.51578169  0.01338971  0.00899059     0.42700
N355        N  0.53282346  0.06235307  0.23427336    -0.46800
Co356      Co  0.63076002  0.20533503  0.12701975     0.73900
C357        C  0.54300194  0.23676578  0.06960773    -0.07100
C358        C  0.71528232  0.05941840  0.00559073    -0.06700
N359        N  0.56797613  0.03314976  0.16964398    -0.26200
N360        N  0.71102749  0.19063582  0.99902534    -0.46900
H361        H  0.53484439  0.07943832  0.96359251     0.06700
C362        C  0.54038165  0.18249966  0.24580421    -0.07100
Cl363      Cl  0.62658962  0.11761574  0.12237859    -0.50100
C364        C  0.74195670  0.20933380  0.22472877     0.42500
H365        H  0.51952118  0.97506137  0.15414579     0.06700
N366        N  0.54781157  0.24280017  0.19331546    -0.46800
C367        C  0.59128667  0.59093061  0.13715446     0.86300
C368        C  0.56311218  0.62910619  0.10992584    -0.53900
C369        C  0.59101096  0.65672431  0.08077745     0.09300
C370        C  0.64426721  0.64545631  0.08280992     0.20200
C371        C  0.61955891  0.56370066  0.09887407    -0.54600
C372        C  0.64690687  0.59234927  0.07064653     0.09400
C373        C  0.62878319  0.62072429  0.16466959    -0.54200
C374        C  0.65574648  0.64943578  0.13601101     0.09900
H375        H  0.52476874  0.63449762  0.11376243     0.14500
H376        H  0.66705585  0.66869612  0.05998920     0.00200
H377        H  0.61839544  0.52508061  0.09465040     0.14800
H378        H  0.63077810  0.62369791  0.20344326     0.14500
C379        C  0.15103176  0.65768393  0.64828413     0.86300
C380        C  0.18125302  0.62905915  0.61222464    -0.53900
C381        C  0.15459845  0.60110242  0.58232278     0.09300
C382        C  0.10052193  0.60343176  0.59104215     0.20200
C383        C  0.11487791  0.68476456  0.61848157    -0.54600
C384        C  0.08843555  0.65662455  0.58881594     0.09400
C385        C  0.12136665  0.61919833  0.67415643    -0.54200
C386        C  0.09485850  0.59149525  0.64391439     0.09900
H387        H  0.22017966  0.62948080  0.61145187     0.14500
H388        H  0.07905387  0.57985998  0.56711751     0.00200
H389        H  0.10998454  0.72322343  0.62133256     0.14800
H390        H  0.12098660  0.61244192  0.71229460     0.14500
C391        C  0.25508864  0.25520119  0.46142723     0.42300
N392        N  0.27776917  0.30801117  0.40801098     0.01200
C393        C  0.49852976  0.30896403  0.28218926    -0.06700
H394        H  0.51388556  0.33514426  0.46077340     0.06700
C395        C  0.42491689  0.49382321  0.45107280    -0.07000
Co396      Co  0.37205022  0.28106039  0.35974655     0.74200
N397        N  0.45232928  0.32115689  0.41690961    -0.26200
Co398      Co  0.45490805  0.37354491  0.36522237     0.74100
C399        C  0.46968562  0.47901617  0.47495806     0.42400
N400        N  0.30836818  0.45146349  0.41080618     0.00800
N401        N  0.45051657  0.42824372  0.41818906     0.00900
N402        N  0.44626610  0.24759058  0.28184497    -0.47100
H403        H  0.32399813  0.21157259  0.44848190     0.06700
N404        N  0.42103065  0.28575678  0.41514149     0.01200
N405        N  0.45331657  0.42538342  0.31307774     0.00900
C406        C  0.47236607  0.47026174  0.25502652     0.42600
N407        N  0.27610647  0.41680208  0.40914322    -0.25700
C408        C  0.32017350  0.25121057  0.26688119    -0.06600
N409        N  0.24242808  0.29622362  0.43850357    -0.46800
N410        N  0.48694879  0.43254467  0.28055263    -0.47000
C411        C  0.27747886  0.26586871  0.24101203     0.42300
N412        N  0.43114226  0.28278594  0.31089113     0.01200
N413        N  0.27761392  0.42134967  0.30433702    -0.25700
N414        N  0.31338407  0.27692726  0.40888763    -0.26200
N415        N  0.31019242  0.45576416  0.30562455     0.00800
H416        H  0.21160666  0.41389558  0.26413694     0.06700
H417        H  0.40590950  0.51776195  0.26575304     0.06800
N418        N  0.46182558  0.31871464  0.31264230    -0.26200
N419        N  0.41601171  0.46039920  0.41652182    -0.25800
N420        N  0.28727612  0.31215666  0.30207591     0.01200
C421        C  0.46688472  0.26872499  0.47346622     0.42600
C422        C  0.24347807  0.42459915  0.44366956    -0.07100
N423        N  0.41832003  0.45700473  0.31108050    -0.25800
H424        H  0.40400936  0.52579820  0.45730927     0.06700
N425        N  0.42914898  0.25289445  0.44779190    -0.47100
H426        H  0.21144775  0.40363828  0.44962537     0.06700
C427        C  0.25959406  0.47985359  0.25088968     0.42400
C428        C  0.30243674  0.24274594  0.44132898    -0.06600
Co429      Co  0.27861530  0.36439128  0.35579249     0.73800
N430        N  0.29922456  0.48347379  0.44451035    -0.46800
C431        C  0.48828566  0.26161649  0.26127602     0.42700
N432        N  0.25863147  0.30361844  0.26520274    -0.46800
Co433      Co  0.36314035  0.45687024  0.36095035     0.73900
C434        C  0.42719672  0.48699846  0.27509319    -0.07100
C435        C  0.48256223  0.31372462  0.45288648    -0.06700
N436        N  0.32306498  0.28134296  0.30407503    -0.26200
N437        N  0.48297523  0.43812446  0.45191699    -0.46900
H438        H  0.53067994  0.33027243  0.27852747     0.06700
C439        C  0.24418738  0.43361021  0.27133515    -0.07100
Cl440      Cl  0.36694121  0.36897722  0.36034514    -0.50100
C441        C  0.25929266  0.46864792  0.46707846     0.42500
H442        H  0.34410427  0.22154157  0.26009063     0.06700
N443        N  0.30054196  0.49098753  0.27495945    -0.46800
C444        C  0.71971505  0.70780402  0.72422138     0.42300
N445        N  0.70107361  0.66195076  0.66586256     0.01200
C446        C  0.49699608  0.66778716  0.53024286    -0.06700
H447        H  0.45965823  0.66479288  0.71117667     0.06700
C448        C  0.55532572  0.50033823  0.71329021    -0.07000
Co449      Co  0.61437120  0.69789349  0.61530481     0.74200
N450        N  0.52617858  0.66912466  0.67104370    -0.26200
Co451      Co  0.52516382  0.61137047  0.62070923     0.74100
C452        C  0.51309159  0.51998493  0.73719767     0.42400
N453        N  0.67046899  0.52136964  0.66981946     0.00800
N454        N  0.52872747  0.56160709  0.67528398     0.00900
N455        N  0.55545108  0.72388537  0.52850246    -0.47100
H456        H  0.65633053  0.75805880  0.71039588     0.06700
N457        N  0.55953756  0.70255845  0.66862532     0.01200
N458        N  0.52190804  0.55428005  0.56962775     0.00900
C459        C  0.49868639  0.50383545  0.51405958     0.42600
N460        N  0.70510852  0.55338003  0.66583413    -0.25700
C461        C  0.67955986  0.73008039  0.52832630    -0.06600
N462        N  0.73360023  0.66863957  0.69948098    -0.46800
N463        N  0.48770822  0.54554246  0.53714693    -0.47000
C464        C  0.72437956  0.71428989  0.50519059     0.42300
N465        N  0.56140236  0.69389998  0.56414017     0.01200
N466        N  0.69553409  0.55539976  0.56182355    -0.25700
N467        N  0.66761583  0.69539989  0.66646654    -0.26200
N468        N  0.66201634  0.52211924  0.56484756     0.00800
H469        H  0.75474358  0.56572972  0.51323268     0.06700
H470        H  0.56346422  0.45517820  0.52873614     0.06800
N471        N  0.52739866  0.66109961  0.56629257    -0.26200
N472        N  0.56211884  0.52817219  0.67524800    -0.25800
N473        N  0.70200647  0.66346246  0.56025462     0.01200
C474        C  0.50840683  0.73066069  0.72131712     0.42600
C475        C  0.74191980  0.53955858  0.69414735    -0.07100
N476        N  0.55504598  0.52068379  0.56991967    -0.25800
H477        H  0.57569257  0.46866472  0.72161198     0.06700
N478        N  0.54965922  0.74012344  0.69696979    -0.47100
H479        H  0.77643044  0.55706872  0.69615538     0.06700
C480        C  0.70271919  0.50269088  0.50293551     0.42400
C481        C  0.67632439  0.72586598  0.70237485    -0.06600
Co482      Co  0.70182841  0.60867812  0.61340726     0.73800
N483        N  0.68185288  0.48619799  0.69991909    -0.46800
C484        C  0.51619387  0.70884102  0.50501315     0.42700
N485        N  0.73599719  0.67271211  0.52747116    -0.46800
Co486      Co  0.61228509  0.52228744  0.62024964     0.73900
C487        C  0.54354945  0.48754303  0.53616773    -0.07100
C488        C  0.49289259  0.68328618  0.70375096    -0.06700
N489        N  0.66868670  0.69689036  0.56167742    -0.26200
N490        N  0.49812243  0.55743801  0.71131907    -0.46900
H491        H  0.46443053  0.64778280  0.52382145     0.06700
C492        C  0.72301206  0.54607967  0.52364646    -0.07100
Cl493      Cl  0.61347593  0.61005227  0.61765780    -0.50100
C494        C  0.72652094  0.49494058  0.71750908     0.42500
H495        H  0.65997356  0.76285258  0.52275964     0.06700
N496        N  0.66577352  0.48917490  0.53084454    -0.46800
C497        C  0.59816079  0.14942374  0.57856636     0.86300
C498        C  0.56856212  0.12586101  0.61813633    -0.53900
C499        C  0.59473359  0.09928760  0.64900865     0.09300
C500        C  0.64820954  0.09814998  0.63783814     0.20200
C501        C  0.63839804  0.17701388  0.60449580    -0.54600
C502        C  0.66301572  0.15038480  0.63651753     0.09400
C503        C  0.62531867  0.10803413  0.55405065    -0.54200
C504        C  0.65094291  0.08126211  0.58577176     0.09900
H505        H  0.52976146  0.12836108  0.62005292     0.14500
H506        H  0.66946049  0.07637189  0.66319697     0.00200
H507        H  0.64690722  0.21442321  0.59927788     0.14800
H508        H  0.62538169  0.10089485  0.51569051     0.14500
C509        C  0.08344978  0.08379999  0.15338331     0.86300
C510        C  0.05363311  0.11930677  0.12500913    -0.53900
C511        C  0.07947621  0.14460930  0.09263073     0.09300
C512        C  0.13303658  0.13393391  0.09231932     0.20200
C513        C  0.11046926  0.05376179  0.11622498    -0.54600
C514        C  0.13613698  0.07971952  0.08396440     0.09400
C515        C  0.12217274  0.11532398  0.17682372    -0.54200
C516        C  0.14809686  0.14117123  0.14460122     0.09900
H517        H  0.01527024  0.12403089  0.12993760     0.14500
H518        H  0.15325170  0.15614954  0.06642689     0.00200
H519        H  0.10950231  0.01494348  0.11586377     0.14800
H520        H  0.12863908  0.11912010  0.21493216     0.14500
C521        C  0.24986915  0.23518246  0.20785913    -0.00300
C522        C  0.25644893  0.18550701  0.21021809    -0.12200
C523        C  0.22529851  0.15436234  0.18684676     0.01900
C524        C  0.18699212  0.17281895  0.16027948    -0.00400
C525        C  0.18283150  0.22220906  0.15384884    -0.12100
C526        C  0.21407030  0.25363120  0.17758260     0.01800
H527        H  0.28409143  0.17050756  0.23263798     0.14800
H528        H  0.15368593  0.23620994  0.13256611     0.14800
C529        C  0.20832872  0.30439772  0.17100513     0.36500
C530        C  0.23212101  0.10347327  0.19201086     0.36400
N531        N  0.20406685  0.34512856  0.16574818    -0.43900
N532        N  0.23712253  0.06267485  0.19599898    -0.43900
C533        C  0.49714351  0.23798272  0.50255668    -0.00300
C534        C  0.50035266  0.18929239  0.49101371    -0.12200
C535        C  0.53324662  0.15998347  0.51416248     0.01900
C536        C  0.56532668  0.18001712  0.54825700    -0.00400
C537        C  0.55833636  0.22816542  0.56228725    -0.12100
C538        C  0.52533980  0.25711710  0.53954690     0.01800
H539        H  0.47738531  0.17408630  0.46349864     0.14800
H540        H  0.57678059  0.24353082  0.59272204     0.14800
C541        C  0.51970177  0.30577551  0.55653454     0.36500
C542        C  0.53097804  0.10942887  0.50370103     0.36400
N543        N  0.51535263  0.34466711  0.57032250    -0.43900
N544        N  0.52832285  0.06901335  0.49497678    -0.40700
C545        C  0.22971713  0.50104850  0.49571943    -0.00300
C546        C  0.22876191  0.54926172  0.48245843    -0.12200
C547        C  0.20238964  0.58228149  0.50901475     0.01900
C548        C  0.17693645  0.56692797  0.54962350    -0.00400
C549        C  0.17653794  0.51863659  0.56223890    -0.12100
C550        C  0.20283628  0.48540569  0.53545398     0.01800
H551        H  0.24847065  0.56116543  0.45108722     0.14800
H552        H  0.15709709  0.50729929  0.59399650     0.14800
C553        C  0.20375905  0.43632767  0.55088720     0.36500
C554        C  0.20087581  0.63121685  0.49312363     0.36400
N555        N  0.20451986  0.39701331  0.56334098    -0.43900
N556        N  0.19913523  0.67004684  0.47937198    -0.43900
C557        C  0.56061543  0.55754883  0.16698193    -0.00300
C558        C  0.57673981  0.54306420  0.21245039    -0.12200
C559        C  0.54875871  0.51398583  0.24143469     0.01900
C560        C  0.50406499  0.49803861  0.22470684    -0.00400
C561        C  0.48896339  0.50923176  0.17857453    -0.12100
C562        C  0.51749210  0.53734964  0.14891770     0.01800
H563        H  0.61163083  0.55326589  0.22569029     0.14800
H564        H  0.45509074  0.49530357  0.16548052     0.14800
C565        C  0.50158659  0.54381352  0.10014537     0.36500
C566        C  0.56616906  0.50237046  0.28872951     0.36400
N567        N  0.48824196  0.54888255  0.06125853    -0.43900
N568        N  0.58021730  0.49315446  0.32655249    -0.43900
C569        C  0.82455123  0.30787541  0.30377144    -0.00300
C570        C  0.77612511  0.30204444  0.31532550    -0.12200
C571        C  0.74880557  0.26822129  0.29104161     0.01900
C572        C  0.77048964  0.24020221  0.25478789    -0.00400
C573        C  0.81904206  0.24498578  0.24400767    -0.12100
C574        C  0.84660734  0.27828508  0.26878215     0.01800
H575        H  0.75945584  0.32465176  0.34248208     0.14800
H576        H  0.83526537  0.22278907  0.21623861     0.14800
C577        C  0.89762555  0.27945092  0.25969728     0.36500
C578        C  0.69841708  0.26408409  0.30259432     0.36400
N579        N  0.93854481  0.28021941  0.25282613    -0.43900
N580        N  0.65808424  0.26065141  0.31180886    -0.43900
C581        C  0.93911028  0.44157768  0.30968765    -0.00300
C582        C  0.98596052  0.42558796  0.29889046    -0.12200
C583        C  0.01430177  0.44866680  0.26533495     0.01900
C584        C  0.99532504  0.48737675  0.24039068    -0.00400
C585        C  0.94838722  0.50235252  0.24871142    -0.12100
C586        C  0.91992202  0.47970117  0.28251529     0.01800
H587        H  0.00042535  0.39356963  0.31451610     0.14800
H588        H  0.93401951  0.53244026  0.22916557     0.14800
C589        C  0.87099887  0.49599255  0.28653945     0.36500
C590        C  0.06213580  0.43095788  0.25595260     0.36400
N591        N  0.83215569  0.51017163  0.28934813    -0.43900
N592        N  0.10049690  0.41699787  0.24852870    -0.43900
C593        C  0.97716864  0.24939064  0.48621110    -0.00300
C594        C  0.94514559  0.23101179  0.45232127    -0.12200
C595        C  0.91709633  0.26168591  0.42522071     0.01900
C596        C  0.92165896  0.31146638  0.43212969    -0.00400
C597        C  0.95063380  0.32946987  0.46887289    -0.12100
C598        C  0.97831104  0.29897992  0.49611709     0.01800
H599        H  0.94336750  0.19276986  0.44578219     0.14800
H600        H  0.95295408  0.36776224  0.47501645     0.14800
C601        C  0.00699439  0.31982882  0.53400195     0.36500
C602        C  0.88595013  0.24067587  0.38968662     0.36400
N603        N  0.02981005  0.33668759  0.56435793    -0.43900
N604        N  0.86105967  0.22181279  0.36234155    -0.43900
C605        C  0.79783156  0.41912307  0.42047535    -0.00300
C606        C  0.80059341  0.41748161  0.47047890    -0.12200
C607        C  0.76707465  0.44201186  0.49842519     0.01900
C608        C  0.73108705  0.46867131  0.47566040    -0.00400
C609        C  0.72604018  0.46704519  0.42585610    -0.12100
C610        C  0.75907514  0.44179991  0.39798232     0.01800
H611        H  0.83027560  0.39933806  0.48744461     0.14800
H612        H  0.69761436  0.48697578  0.40878159     0.14800
C613        C  0.75321442  0.44018330  0.34651252     0.36500
C614        C  0.77143308  0.44138642  0.55012269     0.36400
N615        N  0.74827439  0.43832229  0.30531168    -0.43900
N616        N  0.77446670  0.44095507  0.59154643    -0.43900
C617        C  0.26176032  0.76532833  0.22429959    -0.00300
C618        C  0.23913449  0.80126475  0.25123791    -0.12200
C619        C  0.26442884  0.82681368  0.28590772     0.01900
C620        C  0.31273448  0.81518233  0.29415839    -0.00400
C621        C  0.33603840  0.78147125  0.26507100    -0.12100
C622        C  0.31122340  0.75659345  0.22998168     0.01800
H623        H  0.20118821  0.80803285  0.24641082     0.14800
H624        H  0.37373621  0.77386629  0.27054964     0.14800
C625        C  0.33719518  0.72037180  0.20331530     0.36500
C626        C  0.23916004  0.86261087  0.31369018     0.36400
N627        N  0.35856353  0.69166437  0.18209478    -0.43900
N628        N  0.21816988  0.89148567  0.33503021    -0.43900
C629        C  0.47262566  0.99961217  0.24979858    -0.00300
C630        C  0.43925424  0.96889008  0.22814699    -0.12200
C631        C  0.41279304  0.93693608  0.25575296     0.01900
C632        C  0.42045853  0.93550232  0.30564990    -0.00400
C633        C  0.45100431  0.96855340  0.32762910    -0.12100
C634        C  0.47707131  0.00068957  0.30038409     0.01800
H635        H  0.43520014  0.96858819  0.18942475     0.14800
H636        H  0.45569299  0.96808445  0.36629990     0.14800
C637        C  0.51056767  0.03121839  0.32556731     0.36500
C638        C  0.38049579  0.90457670  0.23145854     0.36400
N639        N  0.53743533  0.05536060  0.34605291    -0.43900
N640        N  0.35464745  0.87941205  0.21091492    -0.43900
C641        C  0.22933162  0.98197134  0.46151929    -0.00300
C642        C  0.25834262  0.00267165  0.42618311    -0.12200
C643        C  0.29166351  0.97517342  0.40101763     0.01900
C644        C  0.29593300  0.92639423  0.41178253    -0.00400
C645        C  0.26336776  0.90472253  0.44306902    -0.12100
C646        C  0.22982402  0.93190198  0.46792675     0.01800
H647        H  0.25692859  0.04088642  0.42022271     0.14800
H648        H  0.26566805  0.86662791  0.44966390     0.14800
C649        C  0.19971950  0.90750899  0.50228374     0.36500
C650        C  0.32288779  0.99872746  0.36723708     0.36400
N651        N  0.17589043  0.88755509  0.52971811    -0.43900
N652        N  0.34717450  0.01842631  0.34005231    -0.43900
C653        C  0.43053666  0.80525269  0.42626172    -0.00300
C654        C  0.42658698  0.80322007  0.47664072    -0.12200
C655        C  0.45416070  0.77156416  0.50274124     0.01900
C656        C  0.48686513  0.74174933  0.47860515    -0.00400
C657        C  0.49207720  0.74366107  0.42902663    -0.12100
C658        C  0.46401512  0.77468389  0.40250757     0.01800
H659        H  0.40185726  0.82514370  0.49665308     0.14800
H660        H  0.51762339  0.72035624  0.41099370     0.14800
C661        C  0.46976991  0.77327028  0.35087186     0.36500
C662        C  0.44789369  0.76995151  0.55431601     0.36400
N663        N  0.47435026  0.77177907  0.30956261    -0.43900
N664        N  0.44267725  0.76850144  0.59552835    -0.43900
C665        C  0.31996075  0.30212716  0.80318031    -0.00300
C666        C  0.30333718  0.25676391  0.81764173    -0.12200
C667        C  0.27255935  0.23009965  0.78895292     0.01900
C668        C  0.25613523  0.24963645  0.74609407    -0.00400
C669        C  0.27093937  0.29499829  0.73179446    -0.12100
C670        C  0.30332600  0.32117417  0.75939690     0.01800
H671        H  0.31348600  0.24203656  0.85192963     0.14800
H672        H  0.25828881  0.30932771  0.69807185     0.14800
C673        C  0.31914193  0.36631008  0.74039583     0.36500
C674        C  0.25722638  0.18340245  0.80471172     0.36400
N675        N  0.33039477  0.40256164  0.72414465    -0.43900
N676        N  0.24487383  0.14599231  0.81713066    -0.43900
C677        C  0.28420755  0.40950901  0.91663234    -0.00300
C678        C  0.25614605  0.38954580  0.95357238    -0.12200
C679        C  0.22839399  0.41867844  0.98329309     0.01900
C680        C  0.22678200  0.46767576  0.97416288    -0.00400
C681        C  0.24928728  0.48662823  0.93371483    -0.12100
C682        C  0.27834382  0.45810869  0.90487020     0.01800
H683        H  0.25923309  0.35187077  0.96179860     0.14800
H684        H  0.24634379  0.52453131  0.92635117     0.14800
C685        C  0.30405482  0.48127159  0.86650964     0.36500
C686        C  0.20403134  0.39829957  0.02414114     0.36400
N687        N  0.32367296  0.50079320  0.83567669    -0.43900
N688        N  0.18458132  0.38220965  0.05703245    -0.43900
C689        C  0.43110820  0.30726827  0.94150495    -0.00300
C690        C  0.41850024  0.29803314  0.98963754    -0.12200
C691        C  0.44684569  0.26935734  0.01797334     0.01900
C692        C  0.48792586  0.24859320  0.99794934    -0.00400
C693        C  0.50115078  0.25719539  0.95050494    -0.12100
C694        C  0.47355499  0.28658255  0.92219001     0.01800
H695        H  0.38628024  0.31171179  0.00618541     0.14800
H696        H  0.53371837  0.24158037  0.93577653     0.14800
C697        C  0.48971560  0.29436341  0.87339796     0.36500
C698        C  0.43228202  0.26048701  0.06699739     0.36400
N699        N  0.50279887  0.30079116  0.83448515    -0.43900
N700        N  0.42066898  0.25346357  0.10624768    -0.43900
C701        C  0.48004683  0.49195391  0.76610563    -0.00300
C702        C  0.46867649  0.50749039  0.81267832    -0.12200
C703        C  0.43905814  0.47970581  0.84182213     0.01900
C704        C  0.41975722  0.43676818  0.82338002    -0.00400
C705        C  0.43011014  0.42215741  0.77645647    -0.12100
C706        C  0.45990385  0.44947015  0.74754218     0.01800
H707        H  0.48413419  0.54033569  0.82666883     0.14800
H708        H  0.41715606  0.38793343  0.76334143     0.14800
C709        C  0.46982340  0.43273974  0.69927520     0.36500
C710        C  0.43007867  0.49485770  0.89077673     0.36400
N711        N  0.47790916  0.41937726  0.66063972    -0.43900
N712        N  0.42278780  0.50676525  0.93003939    -0.43900
C713        C  0.17955086  0.69226395  0.67854181    -0.00300
C714        C  0.17393609  0.69383751  0.72884020    -0.12200
C715        C  0.20021130  0.72563018  0.75662975     0.01900
C716        C  0.23202785  0.75718153  0.73415176    -0.00400
C717        C  0.23543831  0.75841844  0.68419299    -0.12100
C718        C  0.20946997  0.72663916  0.65622050     0.01800
H719        H  0.14886266  0.67139153  0.74753219     0.14800
H720        H  0.25982164  0.78303267  0.66673323     0.14800
C721        C  0.21418740  0.73096606  0.60472853     0.36500
C722        C  0.19397400  0.72504830  0.80815126     0.36400
N723        N  0.21822013  0.73532137  0.56364763    -0.43900
N724        N  0.18941862  0.72437716  0.84943412    -0.43900
C725        C  0.16345363  0.05621164  0.04503894    -0.00300
C726        C  0.14321618  0.01567845  0.02255639    -0.12200
C727        C  0.16997164  0.98797221  0.99048092     0.01900
C728        C  0.21715329  0.00161126  0.97989043    -0.00400
C729        C  0.23620835  0.04376313  0.99924884    -0.12100
C730        C  0.21004041  0.07105208  0.03197198     0.01800
H731        H  0.10677110  0.00498090  0.03091088     0.14800
H732        H  0.27280039  0.05399053  0.99077625     0.14800
C733        C  0.23363976  0.11191320  0.05324484     0.36500
C734        C  0.14848451  0.94595191  0.96904176     0.36400
N735        N  0.25331309  0.14476246  0.06927288    -0.43900
N736        N  0.13095944  0.91249870  0.95176692    -0.43900
C737        C  0.57125859  0.69561951  0.05245398    -0.00300
C738        C  0.53898872  0.72657434  0.07529742    -0.12200
C739        C  0.51241393  0.75878046  0.04895270     0.01900
C740        C  0.51828993  0.75991912  0.99856011    -0.00400
C741        C  0.55379550  0.73217962  0.97634586    -0.12100
C742        C  0.58064366  0.70013681  0.00289757     0.01800
H743        H  0.53282091  0.72393247  0.11365173     0.14800
H744        H  0.55909296  0.73402106  0.93778186     0.14800
C745        C  0.61506668  0.67089600  0.97741686     0.36500
C746        C  0.47686332  0.78676636  0.07447962     0.36400
N747        N  0.64275531  0.64866843  0.95574602    -0.43900
N748        N  0.44841165  0.80891135  0.09524355    -0.43900
C749        C  0.52564737  0.01014591  0.75088616    -0.00300
C750        C  0.51411226  0.05879584  0.74941892    -0.12200
C751        C  0.53692204  0.08890734  0.71734899     0.01900
C752        C  0.57284400  0.07036647  0.68677744    -0.00400
C753        C  0.58634337  0.02221399  0.69011969    -0.12100
C754        C  0.56250527  0.99177296  0.72158758     0.01800
H755        H  0.48523451  0.07303674  0.77142952     0.14800
H756        H  0.61388019  0.00780506  0.66653109     0.14800
C757        C  0.57568489  0.94190729  0.72262717     0.36500
C758        C  0.52122758  0.13800444  0.71571520     0.36400
N759        N  0.58608585  0.90192057  0.72353794    -0.43900
N760        N  0.50736194  0.17689288  0.71433858    -0.43900
C761        C  0.69363210  0.17205768  0.67319979    -0.00300
C762        C  0.74012301  0.15453037  0.68010776    -0.12200
C763        C  0.76988303  0.17535134  0.71471520     0.01900
C764        C  0.75215666  0.21312753  0.74328117    -0.00400
C765        C  0.70507054  0.22904734  0.73754032    -0.12100
C766        C  0.67580042  0.20904748  0.70287930     0.01800
H767        H  0.75342799  0.12539811  0.65800870     0.14800
H768        H  0.69144115  0.25868544  0.75891645     0.14800
C769        C  0.62769700  0.22752546  0.69884101     0.36500
C770        C  0.81797990  0.15743631  0.72060316     0.36400
N771        N  0.58951452  0.24315928  0.69572441    -0.43900
N772        N  0.85643642  0.14292531  0.72550888    -0.43900
C773        C  0.05724375  0.18046984  0.06253533    -0.00300
C774        C  0.02793138  0.21459735  0.08493900    -0.12200
C775        C  0.00297276  0.24755863  0.05786065     0.01900
C776        C  0.00742852  0.24611544  0.00735312    -0.00400
C777        C  0.03790817  0.21288135  0.98519159    -0.12100
C778        C  0.06281482  0.17994637  0.01231047     0.01800
H779        H  0.02448518  0.21532744  0.12377852     0.14800
H780        H  0.04117403  0.21154027  0.94638380     0.14800
C781        C  0.09150122  0.14485056  0.98711955     0.36500
C782        C  0.97440865  0.28278057  0.08318889     0.36400
N783        N  0.11415483  0.11738880  0.96562129    -0.43900
N784        N  0.95187522  0.31078356  0.10414033    -0.43900
C785        C  0.73922632  0.52290654  0.97244915    -0.00300
C786        C  0.68953373  0.51898225  0.96605055    -0.12200
C787        C  0.65833991  0.54377972  0.99612781     0.01900
C788        C  0.67721429  0.57327254  0.03250553    -0.00400
C789        C  0.72638747  0.58205349  0.03485854    -0.12100
C790        C  0.75775491  0.55725149  0.00485510     0.01800
H791        H  0.67485361  0.49409025  0.93990078     0.14800
H792        H  0.74048685  0.60610038  0.06197727     0.14800
C793        C  0.80839504  0.56694456  0.00926190     0.36500
C794        C  0.60735321  0.53803850  0.98942084     0.36400
N795        N  0.84891930  0.57482581  0.01321237    -0.43900
N796        N  0.56655746  0.53364491  0.98363907    -0.43900
C797        C  0.00600425  0.49505255  0.71833426    -0.00300
C798        C  0.98535363  0.52544279  0.68473514    -0.12200
C799        C  0.01396755  0.55462252  0.65637537     0.01900
C800        C  0.06404251  0.55358831  0.66222907    -0.00400
C801        C  0.08487822  0.52009171  0.69260621    -0.12100
C802        C  0.05635183  0.49059454  0.72061785     0.01800
H803        H  0.94667091  0.52793154  0.68205502     0.14800
H804        H  0.12358537  0.51850444  0.69589112     0.14800
C805        C  0.07993067  0.45629159  0.75086618     0.36500
C806        C  0.99031724  0.58658232  0.62390790     0.36400
N807        N  0.09920540  0.42881308  0.77478676    -0.43900
N808        N  0.96934346  0.61089755  0.59809483    -0.43900
C809        C  0.74302591  0.75221147  0.20581793    -0.00300
C810        C  0.69317337  0.75395410  0.21212365    -0.12200
C811        C  0.66369815  0.72232285  0.18749632     0.01900
C812        C  0.68436083  0.68866715  0.15574037    -0.00400
C813        C  0.73318950  0.69125297  0.14448187    -0.12100
C814        C  0.76284350  0.72303858  0.16933417     0.01800
H815        H  0.67727714  0.77752473  0.23889059     0.14800
H816        H  0.74856555  0.66687570  0.11829019     0.14800
C817        C  0.81317695  0.72459443  0.15725347     0.36500
C818        C  0.61274680  0.72380014  0.19709078     0.36400
N819        N  0.85346254  0.72596260  0.14730720    -0.43900
N820        N  0.57204921  0.72485164  0.20518016    -0.43900
C821        C  0.05274892  0.05257710  0.18487552    -0.00300
C822        C  0.06381315  0.04636349  0.23367449    -0.12200
C823        C  0.03510409  0.01806733  0.26261488     0.01900
C824        C  0.99473023  0.99570604  0.24268949    -0.00400
C825        C  0.98390888  0.00020159  0.19440691    -0.12100
C826        C  0.01311418  0.02733185  0.16494649     0.01800
H827        H  0.09513302  0.06212412  0.24983495     0.14800
H828        H  0.95309567  0.98161765  0.17955388     0.14800
C829        C  0.00152263  0.02779993  0.11438879     0.36500
C830        C  0.04749326  0.01286536  0.31267910     0.36400
N831        N  0.99189595  0.02798549  0.07402157    -0.43900
N832        N  0.05748865  0.00868142  0.35270048    -0.43900
C833        C  0.97864507  0.72499582  0.51199933    -0.00300
C834        C  0.00520364  0.68922152  0.48880950    -0.12200
C835        C  0.04072930  0.66509492  0.51337283     0.01900
C836        C  0.04856332  0.67649665  0.56203028    -0.00400
C837        C  0.01910133  0.70996286  0.58585187    -0.12100
C838        C  0.98467418  0.73492169  0.56083970     0.01800
H839        H  0.00047408  0.68261714  0.45065072     0.14800
H840        H  0.02401225  0.71765408  0.62375965     0.14800
C841        C  0.95731562  0.77169696  0.58522787     0.36500
C842        C  0.07052977  0.63206352  0.48667916     0.36400
N843        N  0.93540420  0.80127190  0.60455629    -0.43900
N844        N  0.09375770  0.60562092  0.46450055    -0.43900
C845        C  0.73709215  0.96892575  0.53155393    -0.00300
C846        C  0.68718719  0.96273636  0.53366051    -0.12200
C847        C  0.65833039  0.99815387  0.55387678     0.01900
C848        C  0.67970209  0.04011326  0.57160182    -0.00400
C849        C  0.72946681  0.04330178  0.57571373    -0.12100
C850        C  0.75847922  0.00744652  0.55658021     0.01800
H851        H  0.67025603  0.93221062  0.51658817     0.14800
H852        H  0.74566768  0.07479962  0.59165862     0.14800
C853        C  0.80984580  0.01194281  0.56144824     0.36500
C854        C  0.60710536  0.99110231  0.55566686     0.36400
N855        N  0.85094588  0.01541573  0.56565791    -0.43900
N856        N  0.56611824  0.98517646  0.55781905    -0.43900
C857        C  0.76570924  0.98302155  0.99285052    -0.00300
C858        C  0.75393579  0.93434181  0.99238263    -0.12200
C859        C  0.77651990  0.90295906  0.96071233     0.01900
C860        C  0.81204781  0.92041162  0.92925963    -0.00400
C861        C  0.82500908  0.96875768  0.93081960    -0.12100
C862        C  0.80213060  0.00023818  0.96234128     0.01800
H863        H  0.72602338  0.92085389  0.01588935     0.14800
H864        H  0.85248214  0.98216092  0.90673806     0.14800
C865        C  0.81715108  0.04963611  0.96296371     0.36500
C866        C  0.76374676  0.85298456  0.96285523     0.36400
N867        N  0.82926219  0.08920108  0.96328948    -0.43900
N868        N  0.75323513  0.81307412  0.96518874    -0.43900
C869        C  0.92973981  0.93776674  0.81612191    -0.00300
C870        C  0.97866618  0.93458759  0.82636599    -0.12200
C871        C  0.01152033  0.96430700  0.80326347     0.01900
C872        C  0.99478860  0.99835979  0.77027958    -0.00400
C873        C  0.94519965  0.00389583  0.76351153    -0.12100
C874        C  0.91272000  0.97336286  0.78550261     0.01800
H875        H  0.99138792  0.90717430  0.85043297     0.14800
H876        H  0.93164965  0.03015431  0.73865165     0.14800
C877        C  0.86234123  0.97794339  0.77471133     0.36500
C878        C  0.06181406  0.95820210  0.81335478     0.36400
N879        N  0.82202134  0.98126655  0.76586941    -0.43900
N880        N  0.10204206  0.95275718  0.82154796    -0.43900
C881        C  0.81788104  0.79510691  0.80172408    -0.00300
C882        C  0.80625834  0.80581679  0.75384865    -0.12200
C883        C  0.77446398  0.77750967  0.72802014     0.01900
C884        C  0.75363528  0.73751323  0.74993088    -0.00400
C885        C  0.76469057  0.72604329  0.79705551    -0.12100
C886        C  0.79568667  0.75489201  0.82354039     0.01800
H887        H  0.81935677  0.83757245  0.73653458     0.14800
H888        H  0.74781268  0.69533627  0.81364960     0.14800
C889        C  0.80214109  0.74306303  0.87347710     0.36500
C890        C  0.76305457  0.79093612  0.67936101     0.36400
N891        N  0.80732025  0.73306636  0.91333661    -0.43900
N892        N  0.75374772  0.80194804  0.64056235    -0.43900
C893        C  0.94460349  0.82551232  0.92617718    -0.00300
C894        C  0.98708559  0.80728553  0.90699639    -0.12200
C895        C  0.02057430  0.78607973  0.93672867     0.01900
C896        C  0.01019725  0.78138532  0.98632425    -0.00400
C897        C  0.97044658  0.80514471  0.00590143    -0.12100
C898        C  0.93754045  0.82726430  0.97616716     0.01800
H899        H  0.99319293  0.80811277  0.86848551     0.14800
H900        H  0.96333092  0.80404517  0.04415509     0.14800
C901        C  0.89562340  0.84831866  0.99803754     0.36500
C902        C  0.06363737  0.76778980  0.91448342     0.36400
N903        N  0.86285881  0.86502728  0.01736358    -0.43900
N904        N  0.09800566  0.75344505  0.89608322    -0.43900
loop_ 
_geom_bond_atom_site_label_1 
_geom_bond_atom_site_label_2 
_geom_bond_distance 
_geom_bond_site_symmetry_2 
_ccdc_geom_bond_type 
C1            C2   1.535       .  S
C1            C7   1.542       .  S
C1            C5   1.529       .  S
C1          C881   1.515       .  S
C2            H9   1.086       .  S
C2            C3   1.362       .  D
C3            C4   1.519       .  S
C3          C893   1.455       .  S
C4            C8   1.523       .  S
C4            C6   1.526       .  S
C4           H10   1.112       .  S
C5           H11   1.087       .  S
C5            C6   1.358       .  D
C6          C860   1.463       .  S
C7           H12   1.083       .  S
C7            C8   1.361       .  D
C8          C869   1.459       .  S
C13          N31   1.366       .  A
C13          C50   1.478       .  S
C13         C248   1.537   1_655  S
N14          N31   1.341       .  A
N14          N36   1.322       .  A
N14         Co51   2.148       .  S
C15          N40   1.354       .  A
C15          C53   1.468       .  S
C15          H60   1.082       .  S
H16          C57   1.081       .  S
C17          N41   1.359       .  A
C17          C21   1.478       .  S
C17          H46   1.081       .  S
Co18         N36   2.141       .  S
Co18         N26   2.070       .  S
Co18         N58   2.066       .  S
Co18         N34   2.153       .  S
Co18        Cl62   2.470       .  S
N19          C57   1.336       .  A
N19          N26   1.321       .  A
N19         Co20   2.074       .  S
Co20         N23   2.124       .  S
Co20         N40   2.116       .  S
Co20         N27   2.068       .  S
Co20        Cl62   2.456       .  S
C21          N59   1.360       .  A
C21         C464   1.525       .  S
N22          N29   1.323       .  A
N22          N52   1.315       .  A
N22         Co55   2.055       .  S
N23          N41   1.319       .  A
N23          N59   1.336       .  A
N24          C53   1.367       .  A
N24          N34   1.341       .  A
H25          C50   1.081   1_545  S
N26          N47   1.317       .  A
N27          N45   1.320       .  A
N27          N32   1.317       .  A
C28          N32   1.346       .  A
C28          C56   1.462       .  S
C28         C809   1.463       .  S
N29          C44   1.330       .  A
N29         Co51   2.064       .  S
C30          N58   1.332       .  A
C30          C33   1.449       .  S
C30          H64   1.082   1_565  S
C33          N54   1.340       .  A
C33         C824   1.434       .  S
N34          N40   1.319       .  A
N35          C61   1.358       .  A
N35          N37   1.322       .  A
N35         Co51   2.145       .  S
N36          C50   1.359       .  A
N37          N65   1.341       .  A
N37         Co55   2.140       .  S
H38          C61   1.081   1_455  S
H39          C56   1.081       .  S
N41         Co55   2.141       .  S
N42          N54   1.315       .  A
N42          N58   1.325       .  A
N42         Co51   2.060       .  S
C43          N47   1.348       .  A
C43          C57   1.460       .  S
C43         C845   1.464       .  S
C44          C63   1.452       .  S
C44          H48   1.082       .  S
N45          C56   1.337       .  A
N45         Co55   2.074       .  S
C49          N65   1.365       .  A
C49          C61   1.477       .  S
C49         C291   1.533   1_655  S
Co51        Cl62   2.459       .  S
N52          C63   1.340       .  A
C53         C314   1.525   1_565  S
Co55        Cl62   2.472       .  S
C63         C833   1.434       .  S
C66          N84   1.348       .  A
C66         C103   1.457       .  S
C66         C785   1.460       .  S
N67          N84   1.318       .  A
N67          N89   1.320       .  A
N67        Co104   2.067       .  S
C68          N93   1.332       .  A
C68         C106   1.454       .  S
C68         H113   1.082   1_655  S
H69         C110   1.082   1_455  S
C70          N94   1.334       .  A
C70          C74   1.455       .  S
C70          H99   1.082       .  S
Co71         N89   2.059       .  S
Co71         N79   2.141       .  S
Co71        N111   2.148       .  S
Co71         N87   2.060       .  S
Co71       Cl115   2.467       .  S
N72         C110   1.356       .  A
N72          N79   1.324       .  A
N72         Co73   2.142       .  S
Co73         N76   2.064       .  S
Co73         N93   2.072       .  S
Co73         N80   2.158       .  S
Co73       Cl115   2.465       .  S
C74         N112   1.343       .  A
C74         C797   1.458   1_655  S
N75          N82   1.320       .  A
N75         N105   1.340       .  A
N75        Co108   2.138       .  S
N76          N94   1.323       .  A
N76         N112   1.317       .  A
N77         C106   1.342       .  A
N77          N87   1.317       .  A
H78         C103   1.080   1_554  S
N79         N100   1.339       .  A
N80          N98   1.322       .  A
N80          N85   1.342       .  A
C81          N85   1.368       .  A
C81         C109   1.463       .  S
C81         C208   1.520   1_655  S
N82          C97   1.356       .  A
N82        Co104   2.135       .  S
C83         N111   1.358       .  A
C83          C86   1.481       .  S
C83         H117   1.082   1_556  S
C86         N107   1.362       .  A
C86         C322   1.532   1_556  S
N87          N93   1.324       .  A
N88         C114   1.330       .  A
N88          N90   1.318       .  A
N88        Co104   2.056       .  S
N89         C103   1.330       .  A
N90         N118   1.320       .  A
N90        Co108   2.074       .  S
H91         C114   1.082       .  S
H92         C109   1.082       .  S
N94        Co108   2.069       .  S
N95         N107   1.340       .  A
N95         N111   1.321       .  A
N95        Co104   2.136       .  S
C96         N100   1.362       .  A
C96         C110   1.477       .  S
C96         C281   1.528   1_655  S
C97         C116   1.474       .  S
C97         H101   1.081       .  S
N98         C109   1.349       .  A
N98        Co108   2.110       .  S
C102        N118   1.348       .  A
C102        C114   1.458       .  S
C102        C764   1.455       .  S
Co104      Cl115   2.464       .  S
N105        C116   1.364       .  A
C106        C776   1.454   1_656  S
Co108      Cl115   2.459       .  S
C116        C494   1.527       .  S
C119        N137   1.364       .  A
C119        C156   1.480       .  S
C119        C354   1.534   1_566  S
N120        N137   1.340       .  A
N120        N142   1.320       .  A
N120       Co157   2.138       .  S
C121        N146   1.353       .  A
C121        C159   1.467       .  S
C121        H166   1.081       .  S
H122        C163   1.082       .  S
C123        N147   1.356       .  A
C123        C127   1.476       .  S
C123        H152   1.082       .  S
Co124       N142   2.146       .  S
Co124       N132   2.057       .  S
Co124       N164   2.082       .  S
Co124       N140   2.148       .  S
Co124      Cl168   2.468       .  S
N125        C163   1.335       .  A
N125        N132   1.323       .  A
N125       Co126   2.078       .  S
Co126       N129   2.121       .  S
Co126       N146   2.118       .  S
Co126       N133   2.061       .  S
Co126      Cl168   2.458       .  S
C127        N165   1.359       .  A
C127        C474   1.518       .  S
N128        N135   1.321       .  A
N128        N158   1.321       .  A
N128       Co161   2.078       .  S
N129        N147   1.321       .  A
N129        N165   1.336       .  A
N130        C159   1.367       .  A
N130        N140   1.341       .  A
H131        C156   1.082   1_554  S
N132        N153   1.315       .  A
N133        N151   1.322       .  A
N133        N138   1.315       .  A
C134        N138   1.345       .  A
C134        C162   1.451       .  S
C134        C716   1.446       .  S
N135        C150   1.329       .  A
N135       Co157   2.058       .  S
C136        N164   1.337       .  A
C136        C139   1.459       .  S
C136        H170   1.082   1_556  S
C139        N160   1.344       .  A
C139        C728   1.451   1_565  S
N140        N146   1.320       .  A
N141        C167   1.359   1_565  A
N141        N143   1.320       .  A
N141       Co157   2.143       .  S
N142        C156   1.360       .  A
N143        N171   1.339       .  A
N143       Co161   2.136       .  S
H144        C167   1.082       .  S
H145        C162   1.081       .  S
N147       Co161   2.132       .  S
N148        N160   1.318       .  A
N148        N164   1.323       .  A
N148       Co157   2.068       .  S
C149        N153   1.341       .  A
C149        C163   1.460       .  S
C149        C740   1.457       .  S
C150        C169   1.453       .  S
C150        H154   1.082   1_565  S
N151        C162   1.329       .  A
N151       Co161   2.055       .  S
C155        N171   1.362       .  A
C155        C167   1.480   1_565  S
C155        C216   1.530   1_565  S
Co157      Cl168   2.462       .  S
N158        C169   1.350       .  A
C159        C311   1.523       .  S
Co161      Cl168   2.463       .  S
C169        C749   1.456   1_565  S
C172        C173   1.519       .  S
C172        C178   1.528       .  S
C172        C176   1.534       .  S
C172        C689   1.506       .  S
C173        H180   1.087       .  S
C173        C174   1.354       .  D
C174        C175   1.540       .  S
C174        C704   1.457       .  S
C175        C179   1.535       .  S
C175        C177   1.529       .  S
C175        H181   1.102       .  S
C176        H182   1.081       .  S
C176        C177   1.361       .  D
C177        C677   1.470       .  S
C178        H183   1.086       .  S
C178        C179   1.363       .  D
C179        C665   1.483       .  S
C184        C185   1.540       .  S
C184        C190   1.529       .  S
C184        C188   1.527       .  S
C184        C653   1.515       .  S
C185        H192   1.080       .  S
C185        C186   1.364       .  D
C186        C187   1.522       .  S
C186        C644   1.457       .  S
C187        C191   1.522       .  S
C187        C189   1.521       .  S
C187        H193   1.110       .  S
C188        H194   1.087       .  S
C188        C189   1.360       .  D
C189        C620   1.455       .  S
C190        H195   1.087       .  S
C190        C191   1.362       .  D
C191        C632   1.459       .  S
C196        C197   1.531       .  S
C196        C202   1.524       .  S
C196        C200   1.537       .  S
C196        C581   1.508       .  S
C197        H204   1.085       .  S
C197        C198   1.362       .  D
C198        C199   1.527       .  S
C198        C605   1.454       .  S
C199        C203   1.525       .  S
C199        C201   1.523       .  S
C199        H205   1.111       .  S
C200        H206   1.085       .  S
C200        C201   1.362       .  D
C201        C596   1.461       .  S
C202        H207   1.087       .  S
C202        C203   1.355       .  D
C203        C569   1.454       .  S
C208        N226   1.364       .  A
C208        C245   1.473       .  S
N209        N226   1.340       .  A
N209        N231   1.321       .  A
N209       Co246   2.140       .  S
C210        N235   1.359   1_565  A
C210        C248   1.479       .  S
C210        H255   1.082       .  S
H211        C252   1.081   1_565  S
C212        N236   1.356       .  A
C212        C216   1.473       .  S
C212        H241   1.081       .  S
Co213       N231   2.126       .  S
Co213       N221   2.073       .  S
Co213       N253   2.070       .  S
Co213       N229   2.148       .  S
Co213      Cl257   2.463       .  S
N214        C252   1.338       .  A
N214        N221   1.320       .  A
N214       Co215   2.075       .  S
Co215       N218   2.152       .  S
Co215       N235   2.146       .  S
Co215       N222   2.055       .  S
Co215      Cl257   2.471       .  S
C216        N254   1.367       .  A
N217        N224   1.322       .  A
N217        N247   1.319       .  A
N217       Co250   2.071       .  S
N218        N236   1.322       .  A
N218        N254   1.341       .  A
N219        C248   1.367   1_645  A
N219        N229   1.341   1_655  A
H220        C245   1.082   1_655  S
N221        N242   1.317       .  A
N222        N240   1.322       .  A
N222        N227   1.315   1_545  A
C223        N227   1.341   1_545  A
C223        C251   1.461       .  S
C223        C641   1.459   1_545  S
N224        C239   1.332       .  A
N224       Co246   2.056       .  S
C225        N253   1.336   1_655  A
C225        C228   1.456   1_655  S
C225        H259   1.082       .  S
C228        N249   1.342       .  A
C228        C593   1.456   1_455  S
N229        N235   1.321       .  A
N230        C256   1.358       .  A
N230        N232   1.321       .  A
N230       Co246   2.135       .  S
N231        C245   1.352       .  A
N232        N260   1.340       .  A
N232       Co250   2.147       .  S
H233        C256   1.082       .  S
H234        C251   1.082       .  S
N236       Co250   2.134       .  S
N237        N249   1.314       .  A
N237        N253   1.322       .  A
N237       Co246   2.063       .  S
C238        N242   1.347       .  A
C238        C252   1.465       .  S
C238        C872   1.469   1_445  S
C239        C258   1.448       .  S
C239        H243   1.082       .  S
N240        C251   1.335       .  A
N240       Co250   2.079       .  S
C244        N260   1.365       .  A
C244        C256   1.477       .  S
C244        C391   1.532       .  S
Co246      Cl257   2.462       .  S
N247        C258   1.345       .  A
Co250      Cl257   2.462       .  S
C258        C668   1.445       .  S
C261        N279   1.343   1_554  A
C261        C298   1.467       .  S
C261        C896   1.468   1_554  S
N262        N279   1.315   1_554  A
N262        N284   1.321       .  A
N262       Co299   2.055       .  S
C263        N288   1.327       .  A
C263        C301   1.448       .  S
C263        H308   1.081       .  S
H264        C305   1.082       .  S
C265        N289   1.328       .  A
C265        C269   1.447       .  S
C265        H294   1.081       .  S
Co266       N284   2.084       .  S
Co266       N274   2.135       .  S
Co266       N306   2.143       .  S
Co266       N282   2.068       .  S
Co266      Cl310   2.472       .  S
N267        C305   1.359       .  A
N267        N274   1.322       .  A
N267       Co268   2.146       .  S
Co268       N271   2.077       .  S
Co268       N288   2.054       .  S
Co268       N275   2.140       .  S
Co268      Cl310   2.455       .  S
C269        N307   1.349       .  A
C269        C617   1.451       .  S
N270        N277   1.318       .  A
N270        N300   1.339       .  A
N270       Co303   2.135       .  S
N271        N289   1.322       .  A
N271        N307   1.319       .  A
N272        C301   1.347       .  A
N272        N282   1.317       .  A
H273        C298   1.081   1_655  S
N274        N295   1.339       .  A
N275        N293   1.321       .  A
N275        N280   1.339       .  A
C276        N280   1.362       .  A
C276        C304   1.481       .  S
C276        C427   1.532       .  S
N277        C292   1.355   1_554  A
N277       Co299   2.130       .  S
C278        N306   1.360   1_655  A
C278        C281   1.481   1_654  S
C278        H312   1.082       .  S
C281        N302   1.360       .  A
N282        N288   1.323       .  A
N283        C309   1.327   1_554  A
N283        N285   1.321       .  A
N283       Co299   2.045       .  S
N284        C298   1.336       .  A
N285        N313   1.322       .  A
N285       Co303   2.090       .  S
H286        C309   1.081       .  S
H287        C304   1.081       .  S
N289       Co303   2.052       .  S
N290        N302   1.337   1_554  A
N290        N306   1.319       .  A
N290       Co299   2.127       .  S
C291        N295   1.362       .  A
C291        C305   1.480       .  S
C292        C311   1.475       .  S
C292        H296   1.079       .  S
N293        C304   1.360       .  A
N293       Co303   2.143       .  S
C297        N313   1.352       .  A
C297        C309   1.441   1_554  S
C297        C680   1.442   1_554  S
Co299      Cl310   2.457       .  S
N300        C311   1.362   1_554  A
C301        C584   1.443   1_455  S
Co303      Cl310   2.469       .  S
C314        N332   1.359       .  A
C314        C351   1.481   1_545  S
N315        N332   1.338       .  A
N315        N337   1.321       .  A
N315       Co352   2.123       .  S
C316        N341   1.360   1_556  A
C316        C354   1.480   1_556  S
C316        H361   1.081       .  S
H317        C358   1.081   1_556  S
C318        N342   1.355       .  A
C318        C322   1.471       .  S
C318        H347   1.081       .  S
Co319       N337   2.148       .  S
Co319       N327   2.083       .  S
Co319       N359   2.073       .  S
Co319       N335   2.140       .  S
Co319      Cl363   2.469       .  S
N320        C358   1.332       .  A
N320        N327   1.324       .  A
N320       Co321   2.066       .  S
Co321       N324   2.158       .  S
Co321       N341   2.151       .  S
Co321       N328   2.052       .  S
Co321      Cl363   2.467       .  S
C322        N360   1.368   1_554  A
N323        N330   1.320       .  A
N323        N353   1.316       .  A
N323       Co356   2.060       .  S
N324        N342   1.322       .  A
N324        N360   1.342   1_554  A
N325        C354   1.364       .  A
N325        N335   1.340       .  A
H326        C351   1.082       .  S
N327        N348   1.319       .  A
N328        N346   1.322       .  A
N328        N333   1.315       .  A
C329        N333   1.342       .  A
C329        C357   1.447       .  S
C329        C692   1.436   1_554  S
N330        C345   1.332       .  A
N330       Co352   2.062       .  S
C331        N359   1.337       .  A
C331        C334   1.461       .  S
C331        H365   1.082   1_545  S
C334        N355   1.343       .  A
C334        C629   1.462   1_545  S
N335        N341   1.322       .  A
N336        C362   1.354       .  A
N336        N338   1.319       .  A
N336       Co352   2.119       .  S
N337        C351   1.358   1_545  A
N338        N366   1.337       .  A
N338       Co356   2.130       .  S
H339        C362   1.082       .  S
H340        C357   1.082       .  S
N342       Co356   2.126       .  S
N343        N355   1.315       .  A
N343        N359   1.320       .  A
N343       Co352   2.061       .  S
C344        N348   1.349       .  A
C344        C358   1.455       .  S
C344        C857   1.460   1_544  S
C345        C364   1.451       .  S
C345        H349   1.081       .  S
N346        C357   1.329       .  A
N346       Co356   2.055       .  S
C350        N366   1.361       .  A
C350        C362   1.471       .  S
C350        C431   1.515       .  S
Co352      Cl363   2.455       .  S
N353        C364   1.344       .  A
Co356      Cl363   2.460       .  S
C364        C572   1.439       .  S
C367        C368   1.536       .  S
C367        C373   1.540       .  S
C367        C371   1.523       .  S
C367        C557   1.517       .  S
C368        H375   1.086       .  S
C368        C369   1.366       .  D
C369        C370   1.522       .  S
C369        C737   1.461       .  S
C370        C374   1.521       .  S
C370        C372   1.523       .  S
C370        H376   1.111       .  S
C371        H377   1.087       .  S
C371        C372   1.359       .  D
C372        C788   1.453       .  S
C373        H378   1.084       .  S
C373        C374   1.362       .  D
C374        C812   1.461       .  S
C379        C380   1.530       .  S
C379        C385   1.540       .  S
C379        C383   1.518       .  S
C379        C713   1.506       .  S
C380        H387   1.087       .  S
C380        C381   1.361       .  D
C381        C382   1.529       .  S
C381        C548   1.454       .  S
C382        C386   1.521       .  S
C382        C384   1.529       .  S
C382        H388   1.110       .  S
C383        H389   1.088       .  S
C383        C384   1.356       .  D
C384        C836   1.457       .  S
C385        H390   1.081       .  S
C385        C386   1.360       .  D
C386        C800   1.459       .  S
C391        N409   1.367       .  A
C391        C428   1.474       .  S
N392        N409   1.341       .  A
N392        N414   1.323       .  A
N392       Co429   2.156       .  S
C393        N418   1.353       .  A
C393        C431   1.471       .  S
C393        H438   1.082       .  S
H394        C435   1.081       .  S
C395        N419   1.359       .  A
C395        C399   1.480       .  S
C395        H424   1.082       .  S
Co396       N414   2.133       .  S
Co396       N404   2.070       .  S
Co396       N436   2.072       .  S
Co396       N412   2.134       .  S
Co396      Cl440   2.465       .  S
N397        C435   1.331       .  A
N397        N404   1.321       .  A
N397       Co398   2.066       .  S
Co398       N401   2.119       .  S
Co398       N418   2.120       .  S
Co398       N405   2.064       .  S
Co398      Cl440   2.463       .  S
C399        N437   1.358       .  A
C399        C459   1.522       .  S
N400        N407   1.323       .  A
N400        N430   1.316       .  A
N400       Co433   2.067       .  S
N401        N419   1.321       .  A
N401        N437   1.335       .  A
N402        C431   1.362       .  A
N402        N412   1.337       .  A
H403        C428   1.082       .  S
N404        N425   1.320       .  A
N405        N423   1.321       .  A
N405        N410   1.318       .  A
C406        N410   1.343       .  A
C406        C434   1.453       .  S
C406        C560   1.450       .  S
N407        C422   1.338       .  A
N407       Co429   2.079       .  S
C408        N436   1.332       .  A
C408        C411   1.457       .  S
C408        H442   1.081       .  S
C411        N432   1.354       .  A
C411        C521   1.474       .  S
N412        N418   1.321       .  A
N413        C439   1.360       .  A
N413        N415   1.324       .  A
N413       Co429   2.154       .  S
N414        C428   1.356       .  A
N415        N443   1.339       .  A
N415       Co433   2.140       .  S
H416        C439   1.081       .  S
H417        C434   1.082       .  S
N419       Co433   2.145       .  S
N420        N432   1.324       .  A
N420        N436   1.323       .  A
N420       Co429   2.095       .  S
C421        N425   1.348       .  A
C421        C435   1.455       .  S
C421        C533   1.460       .  S
C422        C441   1.458       .  S
C422        H426   1.081       .  S
N423        C434   1.336       .  A
N423       Co433   2.069       .  S
C427        N443   1.362       .  A
C427        C439   1.481       .  S
Co429      Cl440   2.472       .  S
N430        C441   1.344       .  A
Co433      Cl440   2.463       .  S
C441        C545   1.457       .  S
C444        N462   1.346       .  A
C444        C481   1.452       .  S
C444        C884   1.447       .  S
N445        N462   1.319       .  A
N445        N467   1.324       .  A
N445       Co482   2.078       .  S
C446        N471   1.333       .  A
C446        C484   1.453       .  S
C446        H491   1.081       .  S
H447        C488   1.082       .  S
C448        N472   1.334       .  A
C448        C452   1.457       .  S
C448        H477   1.082       .  S
Co449       N467   2.066       .  S
Co449       N457   2.131       .  S
Co449       N489   2.123       .  S
Co449       N465   2.061       .  S
Co449      Cl493   2.460       .  S
N450        C488   1.355       .  A
N450        N457   1.321       .  A
N450       Co451   2.130       .  S
Co451       N454   2.074       .  S
Co451       N471   2.068       .  S
Co451       N458   2.132       .  S
Co451      Cl493   2.466       .  S
C452        N490   1.346       .  A
C452        C701   1.455       .  S
N453        N460   1.322       .  A
N453        N483   1.339       .  A
N453       Co486   2.137       .  S
N454        N472   1.322       .  A
N454        N490   1.321       .  A
N455        C484   1.344       .  A
N455        N465   1.317       .  A
H456        C481   1.082       .  S
N457        N478   1.337       .  A
N458        N476   1.320       .  A
N458        N463   1.339       .  A
C459        N463   1.362       .  A
C459        C487   1.473       .  S
N460        C475   1.357       .  A
N460       Co482   2.141       .  S
C461        N489   1.353       .  A
C461        C464   1.471       .  S
C461        H495   1.082       .  S
C464        N485   1.365       .  A
N465        N471   1.321       .  A
N466        C492   1.332       .  A
N466        N468   1.322       .  A
N466       Co482   2.069       .  S
N467        C481   1.331       .  A
N468        N496   1.320       .  A
N468       Co486   2.070       .  S
H469        C492   1.082       .  S
H470        C487   1.082       .  S
N472       Co486   2.076       .  S
N473        N485   1.340       .  A
N473        N489   1.321       .  A
N473       Co482   2.142       .  S
C474        N478   1.360       .  A
C474        C488   1.474       .  S
C475        C494   1.476       .  S
C475        H479   1.081       .  S
N476        C487   1.354       .  A
N476       Co486   2.131       .  S
C480        N496   1.344       .  A
C480        C492   1.455       .  S
C480        C608   1.447       .  S
Co482      Cl493   2.469       .  S
N483        C494   1.363       .  A
C484        C656   1.443       .  S
Co486      Cl493   2.459       .  S
C497        C498   1.528       .  S
C497        C503   1.538       .  S
C497        C501   1.541       .  S
C497        C536   1.520       .  S
C498        H505   1.086       .  S
C498        C499   1.359       .  D
C499        C500   1.523       .  S
C499        C752   1.464       .  S
C500        C504   1.523       .  S
C500        C502   1.520       .  S
C500        H506   1.112       .  S
C501        H507   1.084       .  S
C501        C502   1.358       .  D
C502        C761   1.462       .  S
C503        H508   1.085       .  S
C503        C504   1.369       .  D
C504        C848   1.455       .  S
C509        C510   1.526       .  S
C509        C515   1.538       .  S
C509        C513   1.525       .  S
C509        C821   1.507       .  S
C510        H517   1.087       .  S
C510        C511   1.356       .  D
C511        C512   1.525       .  S
C511        C773   1.456       .  S
C512        C516   1.529       .  S
C512        C514   1.536       .  S
C512        H518   1.108       .  S
C513        H519   1.087       .  S
C513        C514   1.361       .  D
C514        C725   1.473       .  S
C515        H520   1.082       .  S
C515        C516   1.363       .  D
C516        C524   1.466       .  S
C521        C522   1.405       .  A
C521        C526   1.412       .  A
C522        H527   1.083       .  S
C522        C523   1.390       .  A
C523        C524   1.405       .  A
C523        C530   1.446       .  S
C524        C525   1.401       .  A
C525        H528   1.085       .  S
C525        C526   1.401       .  A
C526        C529   1.444       .  S
C529        N531   1.157       .  T
C530        N532   1.157       .  T
C533        C534   1.400       .  A
C533        C538   1.401       .  A
C534        H539   1.085       .  S
C534        C535   1.397       .  A
C535        C536   1.419       .  A
C535        C542   1.443       .  S
C536        C537   1.413       .  A
C537        H540   1.079       .  S
C537        C538   1.387       .  A
C538        C541   1.446       .  S
C541        N543   1.157       .  T
C542        N544   1.157       .  T
C545        C546   1.403       .  A
C545        C550   1.407       .  A
C546        H551   1.085       .  S
C546        C547   1.388       .  A
C547        C548   1.403       .  A
C547        C554   1.444       .  S
C548        C549   1.400       .  A
C549        H552   1.085       .  S
C549        C550   1.394       .  A
C550        C553   1.444       .  S
C553        N555   1.157       .  T
C554        N556   1.157       .  T
C557        C558   1.410       .  A
C557        C562   1.421       .  A
C558        H563   1.080       .  S
C558        C559   1.389       .  A
C559        C560   1.404       .  A
C559        C566   1.446       .  S
C560        C561   1.393       .  A
C561        H564   1.085       .  S
C561        C562   1.393       .  A
C562        C565   1.444       .  S
C565        N567   1.157       .  T
C566        N568   1.157       .  T
C569        C570   1.398       .  A
C569        C574   1.413       .  A
C570        H575   1.085       .  S
C570        C571   1.388       .  A
C571        C572   1.408       .  A
C571        C578   1.446       .  S
C572        C573   1.393       .  A
C573        H576   1.085       .  S
C573        C574   1.388       .  A
C574        C577   1.445       .  S
C577        N579   1.157       .  T
C578        N580   1.157       .  T
C581        C582   1.413       .  A
C581        C586   1.421       .  A
C582        H587   1.080   1_655  S
C582        C583   1.385   1_655  A
C583        C584   1.399   1_455  A
C583        C590   1.447       .  S
C584        C585   1.394       .  A
C585        H588   1.086       .  S
C585        C586   1.386       .  A
C586        C589   1.444       .  S
C589        N591   1.157       .  T
C590        N592   1.157       .  T
C593        C594   1.397       .  A
C593        C598   1.413       .  A
C594        H599   1.085       .  S
C594        C595   1.393       .  A
C595        C596   1.411       .  A
C595        C602   1.441       .  S
C596        C597   1.397       .  A
C597        H600   1.086       .  S
C597        C598   1.386       .  A
C598        C601   1.446   1_655  S
C601        N603   1.157       .  T
C602        N604   1.157       .  T
C605        C606   1.396       .  A
C605        C610   1.408       .  A
C606        H611   1.085       .  S
C606        C607   1.392       .  A
C607        C608   1.409       .  A
C607        C614   1.446       .  S
C608        C609   1.395       .  A
C609        H612   1.085       .  S
C609        C610   1.392       .  A
C610        C613   1.444       .  S
C613        N615   1.157       .  T
C614        N616   1.157       .  T
C617        C618   1.399       .  A
C617        C622   1.412       .  A
C618        H623   1.085       .  S
C618        C619   1.391       .  A
C619        C620   1.408       .  A
C619        C626   1.443       .  S
C620        C621   1.397       .  A
C621        H624   1.086       .  S
C621        C622   1.383       .  A
C622        C625   1.445       .  S
C625        N627   1.158       .  T
C626        N628   1.157       .  T
C629        C630   1.401       .  A
C629        C634   1.415   1_565  A
C630        H635   1.085       .  S
C630        C631   1.394       .  A
C631        C632   1.408       .  A
C631        C638   1.443       .  S
C632        C633   1.396       .  A
C633        H636   1.086       .  S
C633        C634   1.386   1_565  A
C634        C637   1.445       .  S
C637        N639   1.157       .  T
C638        N640   1.157       .  T
C641        C642   1.401   1_565  A
C641        C646   1.415       .  A
C642        H647   1.085       .  S
C642        C643   1.391   1_545  A
C643        C644   1.406       .  A
C643        C650   1.443       .  S
C644        C645   1.398       .  A
C645        H648   1.086       .  S
C645        C646   1.386       .  A
C646        C649   1.446       .  S
C649        N651   1.158       .  T
C650        N652   1.157   1_565  T
C653        C654   1.409       .  A
C653        C658   1.424       .  A
C654        H659   1.075       .  S
C654        C655   1.388       .  A
C655        C656   1.403       .  A
C655        C662   1.447       .  S
C656        C657   1.389       .  A
C657        H660   1.085       .  S
C657        C658   1.390       .  A
C658        C661   1.447       .  S
C661        N663   1.157       .  T
C662        N664   1.157       .  T
C665        C666   1.413       .  A
C665        C670   1.416       .  A
C666        H671   1.083       .  S
C666        C667   1.388       .  A
C667        C668   1.397       .  A
C667        C674   1.446       .  S
C668        C669   1.396       .  A
C669        H672   1.086       .  S
C669        C670   1.392       .  A
C670        C673   1.442       .  S
C673        N675   1.157       .  T
C674        N676   1.157       .  T
C677        C678   1.409       .  A
C677        C682   1.412       .  A
C678        H683   1.085       .  S
C678        C679   1.390       .  A
C679        C680   1.398       .  A
C679        C686   1.444   1_556  S
C680        C681   1.396       .  A
C681        H684   1.086       .  S
C681        C682   1.387       .  A
C682        C685   1.443       .  S
C685        N687   1.157       .  T
C686        N688   1.157       .  T
C689        C690   1.411       .  A
C689        C694   1.421       .  A
C690        H695   1.078   1_556  S
C690        C691   1.383   1_556  A
C691        C692   1.398   1_554  A
C691        C698   1.446       .  S
C692        C693   1.393       .  A
C693        H696   1.086       .  S
C693        C694   1.383       .  A
C694        C697   1.448       .  S
C697        N699   1.158       .  T
C698        N700   1.157       .  T
C701        C702   1.399       .  A
C701        C706   1.409       .  A
C702        H707   1.085       .  S
C702        C703   1.397       .  A
C703        C704   1.410       .  A
C703        C710   1.445       .  S
C704        C705   1.395       .  A
C705        H708   1.084       .  S
C705        C706   1.388       .  A
C706        C709   1.445       .  S
C709        N711   1.157       .  T
C710        N712   1.157       .  T
C713        C714   1.409       .  A
C713        C718   1.419       .  A
C714        H719   1.076       .  S
C714        C715   1.385       .  A
C715        C716   1.401       .  A
C715        C722   1.445       .  S
C716        C717   1.395       .  A
C717        H720   1.084       .  S
C717        C718   1.383       .  A
C718        C721   1.446       .  S
C721        N723   1.157       .  T
C722        N724   1.157       .  T
C725        C726   1.409       .  A
C725        C730   1.411       .  A
C726        H731   1.085       .  S
C726        C727   1.393   1_544  A
C727        C728   1.401   1_565  A
C727        C734   1.445       .  S
C728        C729   1.398       .  A
C729        H732   1.086       .  S
C729        C730   1.389   1_556  A
C730        C733   1.443       .  S
C733        N735   1.157       .  T
C734        N736   1.157       .  T
C737        C738   1.398       .  A
C737        C742   1.411       .  A
C738        H743   1.084       .  S
C738        C739   1.386       .  A
C739        C740   1.413   1_554  A
C739        C746   1.445       .  S
C740        C741   1.398       .  A
C741        H744   1.085       .  S
C741        C742   1.390   1_556  A
C742        C745   1.443   1_554  S
C745        N747   1.157       .  T
C746        N748   1.157       .  T
C749        C750   1.401       .  A
C749        C754   1.405   1_545  A
C750        H755   1.084       .  S
C750        C751   1.386       .  A
C751        C752   1.409       .  A
C751        C758   1.444       .  S
C752        C753   1.404       .  A
C753        H756   1.085       .  S
C753        C754   1.394   1_545  A
C754        C757   1.445       .  S
C757        N759   1.157       .  T
C758        N760   1.157       .  T
C761        C762   1.403       .  A
C761        C766   1.409       .  A
C762        H767   1.082       .  S
C762        C763   1.398       .  A
C763        C764   1.406       .  A
C763        C770   1.445       .  S
C764        C765   1.399       .  A
C765        H768   1.085       .  S
C765        C766   1.382       .  A
C766        C769   1.445       .  S
C769        N771   1.157       .  T
C770        N772   1.157       .  T
C773        C774   1.399       .  A
C773        C778   1.407       .  A
C774        H779   1.086       .  S
C774        C775   1.388       .  A
C775        C776   1.412       .  A
C775        C782   1.445   1_455  S
C776        C777   1.399   1_554  A
C777        H780   1.085       .  S
C777        C778   1.387   1_556  A
C778        C781   1.443   1_554  S
C781        N783   1.157       .  T
C782        N784   1.158       .  T
C785        C786   1.403       .  A
C785        C790   1.412   1_556  A
C786        H791   1.084       .  S
C786        C787   1.388       .  A
C787        C788   1.405   1_556  A
C787        C794   1.445       .  S
C788        C789   1.396       .  A
C789        H792   1.082       .  S
C789        C790   1.390       .  A
C790        C793   1.444       .  S
C793        N795   1.158       .  T
C794        N796   1.157       .  T
C797        C798   1.398   1_455  A
C797        C802   1.413       .  A
C798        H803   1.085       .  S
C798        C799   1.390   1_655  A
C799        C800   1.408       .  A
C799        C806   1.441   1_455  S
C800        C801   1.398       .  A
C801        H804   1.086       .  S
C801        C802   1.389       .  A
C802        C805   1.445       .  S
C805        N807   1.157       .  T
C806        N808   1.157       .  T
C809        C810   1.403       .  A
C809        C814   1.409       .  A
C810        H815   1.085       .  S
C810        C811   1.387       .  A
C811        C812   1.408       .  A
C811        C818   1.446       .  S
C812        C813   1.399       .  A
C813        H816   1.082       .  S
C813        C814   1.395       .  A
C814        C817   1.444       .  S
C817        N819   1.157       .  T
C818        N820   1.157       .  T
C821        C822   1.408       .  A
C821        C826   1.424       .  A
C822        H827   1.077       .  S
C822        C823   1.387       .  A
C823        C824   1.402   1_445  A
C823        C830   1.447       .  S
C824        C825   1.387   1_565  A
C825        H828   1.086   1_545  S
C825        C826   1.385   1_655  A
C826        C829   1.447       .  S
C829        N831   1.157   1_455  T
C830        N832   1.157       .  T
C833        C834   1.398   1_655  A
C833        C838   1.397       .  A
C834        H839   1.086       .  S
C834        C835   1.388       .  A
C835        C836   1.407       .  A
C835        C842   1.443       .  S
C836        C837   1.407       .  A
C837        H840   1.085       .  S
C837        C838   1.384   1_455  A
C838        C841   1.445       .  S
C841        N843   1.157       .  T
C842        N844   1.157       .  T
C845        C846   1.404       .  A
C845        C850   1.412   1_565  A
C846        H851   1.083       .  S
C846        C847   1.392       .  A
C847        C848   1.403   1_565  A
C847        C854   1.444       .  S
C848        C849   1.397       .  A
C849        H852   1.083       .  S
C849        C850   1.391       .  A
C850        C853   1.446       .  S
C853        N855   1.158       .  T
C854        N856   1.157       .  T
C857        C858   1.401       .  A
C857        C862   1.409   1_565  A
C858        H863   1.085   1_556  S
C858        C859   1.389       .  A
C859        C860   1.410       .  A
C859        C866   1.445       .  S
C860        C861   1.401       .  A
C861        H864   1.085       .  S
C861        C862   1.392   1_565  A
C862        C865   1.444       .  S
C865        N867   1.157       .  T
C866        N868   1.157       .  T
C869        C870   1.400       .  A
C869        C874   1.403       .  A
C870        H875   1.085       .  S
C870        C871   1.396   1_655  A
C871        C872   1.412   1_455  A
C871        C878   1.444       .  S
C872        C873   1.407   1_565  A
C873        H876   1.084       .  S
C873        C874   1.389   1_545  A
C874        C877   1.445       .  S
C877        N879   1.157       .  T
C878        N880   1.157       .  T
C881        C882   1.409       .  A
C881        C886   1.424       .  A
C882        H887   1.078       .  S
C882        C883   1.388       .  A
C883        C884   1.404       .  A
C883        C890   1.447       .  S
C884        C885   1.390       .  A
C885        H888   1.086       .  S
C885        C886   1.392       .  A
C886        C889   1.445       .  S
C889        N891   1.157       .  T
C890        N892   1.157       .  T
C893        C894   1.394       .  A
C893        C898   1.406       .  A
C894        H899   1.086       .  S
C894        C895   1.390   1_655  A
C895        C896   1.417       .  A
C895        C902   1.442       .  S
C896        C897   1.400   1_456  A
C897        H900   1.084       .  S
C897        C898   1.390   1_554  A
C898        C901   1.441       .  S
C901        N903   1.156   1_556  T
C902        N904   1.156       .  T
