geometry optimzed in LAMMPS
_audit_creation_date              2020-11-30 
_audit_creation_method            'lammps2cif' 
_symmetry_space_group_name_H-M    'P1' 
_symmetry_Int_Tables_number       1 
_symmetry_cell_setting            triclinic 
loop_ 
_symmetry_equiv_pos_as_xyz 
  x,y,z 
_cell_length_a                    28.33100796 
_cell_length_b                    28.13345122869748 
_cell_length_c                    28.075799823611842 
_cell_angle_alpha                 90.59157068404824 
_cell_angle_beta                  89.79059719061573 
_cell_angle_gamma                 90.20280997387812 
loop_ 
_atom_site_label 
_atom_site_type_symbol 
_atom_site_fract_x 
_atom_site_fract_y 
_atom_site_fract_z 
_atom_site_charge 
C1          C  0.83822667  0.83825958  0.84138068     0.85500
C2          C  0.86975232  0.81067096  0.87505535    -0.54700
C3          C  0.90048058  0.83831887  0.90015914     0.08400
C4          C  0.89724368  0.89127624  0.89003565     0.19400
C5          C  0.81443677  0.87587383  0.87351533    -0.55400
C6          C  0.84551863  0.90297514  0.89904246     0.08600
C7          C  0.87205963  0.86745609  0.81045199    -0.55000
C8          C  0.90312925  0.89472677  0.83597521     0.09100
H9          H  0.86744839  0.77235734  0.87928929     0.13600
H10         H  0.92219335  0.91354022  0.91105583    -0.00600
H11         H  0.77679863  0.88254712  0.87605181     0.13900
H12         H  0.87189804  0.86621095  0.77175826     0.13700
N13         N  0.77593717  0.91415132  0.42761752    -0.07100
N14         N  0.74403543  0.92127997  0.46100771    -0.59200
N15         N  0.80491941  0.95720620  0.32132776    -0.06800
N16         N  0.79337665  0.99305882  0.29294907    -0.61300
N17         N  0.77281549  0.92333580  0.31804780    -0.06400
N18         N  0.73967582  0.93526140  0.28694571    -0.59200
N19         N  0.80933865  0.94670559  0.43033735    -0.06000
N20         N  0.80070507  0.97668740  0.46544797    -0.61700
C21         C  0.76019206  0.96008161  0.48460396     0.95100
C22         C  0.75279629  0.97880244  0.27096204     0.94900
N23         N  0.94949344  0.91663505  0.31849995    -0.07300
N24         N  0.97884010  0.92412567  0.28309907    -0.59800
N25         N  0.92330512  0.95079311  0.43012529    -0.05400
N26         N  0.93640062  0.98440214  0.46129318    -0.61000
N27         N  0.95572452  0.91728270  0.42796681    -0.07300
N28         N  0.99114186  0.92792363  0.45751311    -0.60000
N29         N  0.91729811  0.95021901  0.32065477    -0.05000
N30         N  0.92406560  0.98137457  0.28685848    -0.61100
Mn31       Mn  0.86377853  0.95242893  0.37591003     1.18400
C32         C  0.96215826  0.96422999  0.26358915     0.97200
C33         C  0.97882487  0.96990586  0.47870790     0.97800
N34         N  0.77562795  0.81087121  0.31043043    -0.07300
N35         N  0.74752214  0.80773314  0.27332502    -0.63600
N36         N  0.80319277  0.76822210  0.41850528    -0.06100
N37         N  0.79291510  0.73438940  0.44967353    -0.64300
N38         N  0.77086896  0.80173006  0.42030809    -0.06800
N39         N  0.73815822  0.79115799  0.45262908    -0.63900
N40         N  0.80803105  0.77755995  0.30840625    -0.05700
N41         N  0.80265517  0.75115620  0.26983423    -0.64600
Mn42       Mn  0.77264932  0.86239599  0.36909132     1.10700
C43         C  0.76498330  0.77060217  0.24805042     0.98400
C44         C  0.75221547  0.74901623  0.47100064     0.98500
N45         N  0.94842756  0.80278004  0.42116092    -0.06800
N46         N  0.98226916  0.79010128  0.44992799    -0.62200
N47         N  0.92043618  0.77122923  0.30993062    -0.06200
N48         N  0.93276656  0.73700141  0.27930671    -0.58900
N49         N  0.95447149  0.80315463  0.31330253    -0.07500
N50         N  0.99067665  0.79044747  0.28566027    -0.61800
N51         N  0.91581017  0.76933802  0.41845584    -0.06400
N52         N  0.92703903  0.73308226  0.44538081    -0.59000
Mn53       Mn  0.95283670  0.86018907  0.37042531     1.20200
Mn54       Mn  0.86145889  0.77053553  0.36376952     1.10100
Cl55       Cl  0.86275531  0.86140524  0.36996904    -0.86900
C56         C  0.96854194  0.74678630  0.46453685     0.95400
C57         C  0.97661913  0.74941921  0.26386340     0.95200
N58         N  0.96346978  0.42621203  0.92086646    -0.07100
N59         N  0.99715185  0.45786030  0.93127238    -0.59200
N60         N  0.92735791  0.31678083  0.95203436    -0.06800
N61         N  0.93526862  0.28306872  0.98294647    -0.61300
N62         N  0.96052281  0.31664605  0.91905860    -0.06400
N63         N  0.99162436  0.28301757  0.92695384    -0.59200
N64         N  0.93071860  0.42668476  0.95441919    -0.06000
N65         N  0.94194615  0.45860147  0.98796749    -0.61700
C66         C  0.98345753  0.47832648  0.97326499     0.95100
C67         C  0.97526934  0.26217406  0.96677075     0.94900
N68         N  0.78101085  0.31424084  0.92478889    -0.07300
N69         N  0.74648593  0.28457701  0.93707475    -0.59800
N70         N  0.81676437  0.42497929  0.95109084    -0.05400
N71         N  0.80676118  0.45749951  0.98351602    -0.61000
N72         N  0.78377470  0.42339697  0.91804643    -0.07300
N73         N  0.75082173  0.45512519  0.92734864    -0.60000
N74         N  0.81300752  0.31665097  0.95875568    -0.05000
N75         N  0.79984771  0.28929249  0.99504058    -0.61100
Mn76       Mn  0.87214637  0.37127797  0.95517186     1.18400
C77         C  0.75846542  0.26874857  0.98094156     0.97200
C78         C  0.76591376  0.47617582  0.96800036     0.97800
N79         N  0.96422467  0.31231815  0.80586903    -0.07300
N80         N  0.99850099  0.28211654  0.79398702    -0.63600
N81         N  0.92657107  0.41851790  0.77317174    -0.06100
N82         N  0.93593531  0.44798841  0.73835381    -0.64300
N83         N  0.95935839  0.42101624  0.80625750    -0.06800
N84         N  0.99170025  0.45250656  0.79489472    -0.63900
N85         N  0.93016287  0.30981311  0.77415122    -0.05700
N86         N  0.94031747  0.27741480  0.74091748    -0.64600
Mn87       Mn  0.96290588  0.36932135  0.86318789     1.10700
C88         C  0.98283838  0.25966552  0.75379072     0.98400
C89         C  0.97613678  0.46896499  0.75294420     0.98500
N90         N  0.78006912  0.41784228  0.80321708    -0.06800
N91         N  0.74555047  0.44686199  0.79004923    -0.62200
N92         N  0.82006504  0.30830641  0.77921967    -0.06200
N93         N  0.81635572  0.27147908  0.75056451    -0.58900
N94         N  0.78625044  0.30820853  0.81137488    -0.07500
N95         N  0.75824710  0.27117220  0.80469763    -0.61800
N96         N  0.81400511  0.41793111  0.77097833    -0.06400
N97         N  0.80335639  0.44760958  0.73600883    -0.59000
Mn98       Mn  0.78159394  0.36598861  0.86421160     1.20200
Mn99       Mn  0.87243614  0.36389511  0.77361741     1.10100
Cl100      Cl  0.87224454  0.36792632  0.86417265    -0.86900
C101        C  0.76065736  0.46605962  0.74833781     0.95400
C102        C  0.77794691  0.24843384  0.76678909     0.95200
N103        N  0.42490623  0.78535222  0.91302857    -0.07100
N104        N  0.46111937  0.75646292  0.91402659    -0.59200
N105        N  0.31819532  0.81545062  0.95462524    -0.06800
N106        N  0.28875170  0.80241365  0.98938056    -0.61300
N107        N  0.31528650  0.78487016  0.91889435    -0.06400
N108        N  0.28341408  0.75134625  0.92855142    -0.59200
N109        N  0.42791338  0.81749811  0.94731664    -0.06000
N110        N  0.46632905  0.81074249  0.97266175    -0.61700
C111        C  0.48679654  0.77278965  0.95107110     0.95100
C112        C  0.26629514  0.76268787  0.97252416     0.94900
N113        N  0.32128183  0.96288941  0.91949625    -0.07300
N114        N  0.28783306  0.99417865  0.92806434    -0.59800
N115        N  0.43042405  0.93138775  0.95743957    -0.05400
N116        N  0.46300583  0.94026109  0.99061517    -0.61000
N117        N  0.43055662  0.96564384  0.92574808    -0.07300
N118        N  0.46333312  0.99796417  0.93690061    -0.60000
N119        N  0.32117124  0.92964727  0.95233694    -0.05000
N120        N  0.28769517  0.93776104  0.98384720    -0.61100
Mn121      Mn  0.37452237  0.87344922  0.95454915     1.18400
C122        C  0.26699987  0.97765482  0.96788780     0.97200
C123        C  0.48376828  0.98197714  0.97752056     0.97800
N124        N  0.31566673  0.79485865  0.80586338    -0.07300
N125        N  0.27563857  0.77177765  0.80045718    -0.63600
N126        N  0.42862145  0.81652546  0.77101679    -0.06100
N127        N  0.45949745  0.80408035  0.73733496    -0.64300
N128        N  0.42350996  0.78178538  0.80164506    -0.06800
N129        N  0.45032264  0.74505214  0.78895204    -0.63900
N130        N  0.32008447  0.82793214  0.77335777    -0.05700
N131        N  0.28317768  0.82837481  0.74533306    -0.64600
Mn132      Mn  0.36934422  0.78540387  0.85993105     1.10700
C133        C  0.25571662  0.79354025  0.76291056     0.98400
C134        C  0.47329611  0.75943431  0.74906084     0.98500
N135        N  0.43397125  0.96231560  0.81424935    -0.06800
N136        N  0.47196088  0.98900611  0.81324017    -0.62200
N137        N  0.32635214  0.93747905  0.77048853    -0.06200
N138        N  0.29692333  0.94750059  0.73526136    -0.58900
N139        N  0.32515720  0.97096035  0.80358394    -0.07500
N140        N  0.29542360  0.00514139  0.79021599    -0.61800
N141        N  0.43531528  0.92982989  0.78026591    -0.06400
N142        N  0.47423933  0.93427023  0.75493914    -0.59000
Mn143      Mn  0.37716394  0.96696270  0.86578160     1.20200
Mn144      Mn  0.37821267  0.87793988  0.77250078     1.10100
Cl145      Cl  0.37465089  0.87601699  0.86330668    -0.86900
C146        C  0.49696368  0.97106115  0.77635196     0.95400
C147        C  0.27734553  0.98977768  0.74754896     0.95200
C148        C  0.39511634  0.32474043  0.90609062     0.85500
C149        C  0.42982828  0.35664524  0.87944812    -0.54700
C150        C  0.40869971  0.38873903  0.85085784     0.08400
C151        C  0.35451819  0.38586980  0.85048567     0.19400
C152        C  0.36116238  0.35819654  0.93157130    -0.55400
C153        C  0.33940376  0.39011564  0.90297082     0.08600
C154        C  0.36542921  0.30168450  0.86648584    -0.55000
C155        C  0.34432989  0.33400174  0.83782439     0.09100
H156        H  0.46795142  0.35354836  0.88221294     0.13600
H157        H  0.33740765  0.41050118  0.82545412    -0.00600
H158        H  0.35508358  0.35643295  0.96974630     0.13900
H159        H  0.36096664  0.26397263  0.86006893     0.13700
C160        C  0.40932133  0.83290268  0.38522063     0.85500
C161        C  0.37962466  0.86518308  0.41795682    -0.54700
C162        C  0.35040937  0.89557836  0.39425857     0.08400
C163        C  0.35413049  0.89136204  0.34012373     0.19400
C164        C  0.37358086  0.80833762  0.35234730    -0.55400
C165        C  0.34475140  0.83914503  0.32965262     0.08600
C166        C  0.43549840  0.86788666  0.35247994    -0.55000
C167        C  0.40609610  0.89760519  0.32902158     0.09100
H168        H  0.38106030  0.86328065  0.45653579     0.13600
H169        H  0.33185118  0.91608519  0.31961977    -0.00600
H170        H  0.37084843  0.77002712  0.34774265     0.13900
H171        H  0.47304992  0.86938798  0.34586292     0.13700
C172        C  0.91724852  0.39079468  0.32973234     0.85500
C173        C  0.89212690  0.42560440  0.36403688    -0.54700
C174        C  0.86104758  0.40390788  0.39438105     0.08400
C175        C  0.85816361  0.34991353  0.38789544     0.19400
C176        C  0.93956668  0.35336644  0.36110354    -0.55400
C177        C  0.90876039  0.33217076  0.39132361     0.08600
C178        C  0.87626481  0.36491187  0.30483451    -0.55000
C179        C  0.84611595  0.34374216  0.33569354     0.09100
H180        H  0.89626950  0.46392734  0.36216331     0.13600
H181        H  0.83301721  0.33168850  0.41213998    -0.00600
H182        H  0.97672005  0.34395007  0.35919213     0.13900
H183        H  0.86975984  0.36296167  0.26695774     0.13700
N184        N  0.21822801  0.06647311  0.66433388    -0.07100
N185        N  0.25312356  0.05954569  0.69523291    -0.59200
N186        N  0.17898713  0.03215289  0.55519827    -0.06800
N187        N  0.19026102  0.99977846  0.52297990    -0.61300
N188        N  0.20969651  0.06741444  0.55460361    -0.06400
N189        N  0.24231105  0.05988954  0.52209571    -0.59200
N190        N  0.18877713  0.03003982  0.66478570    -0.06000
N191        N  0.20382689  0.99772939  0.69558454    -0.61700
C192        C  0.24366976  0.01669062  0.71534381     0.95100
C193        C  0.22942691  0.01800781  0.50252218     0.94900
N194        N  0.03015226  0.05137843  0.56522246    -0.07300
N195        N  0.99482901  0.03909462  0.53637026    -0.59800
N196        N  0.07629224  0.02508686  0.67106525    -0.05400
N197        N  0.07108499  0.99180645  0.70325265    -0.61000
N198        N  0.04218355  0.05663800  0.67459671    -0.07300
N199        N  0.01308922  0.04542791  0.70935562    -0.60000
N200        N  0.06473791  0.02023938  0.56161049    -0.05000
N201        N  0.05283683  0.98612901  0.53032649    -0.61100
Mn202      Mn  0.12731466  0.02569399  0.61279106     1.18400
C203        C  0.00898092  0.99825405  0.51433765     0.97200
C204        C  0.03180054  0.00521515  0.72698484     0.97800
N205        N  0.20648551  0.18060082  0.55291771    -0.07300
N206        N  0.23978665  0.19523374  0.52286821    -0.63600
N207        N  0.17476992  0.21167758  0.66191314    -0.06100
N208        N  0.18632928  0.24804342  0.68947478    -0.64300
N209        N  0.20872157  0.17988911  0.66126944    -0.06800
N210        N  0.24398810  0.19384483  0.68815964    -0.63900
N211        N  0.17078957  0.21054664  0.55287182    -0.05700
N212        N  0.17919725  0.24546023  0.52226015    -0.64600
Mn213      Mn  0.21139938  0.12335538  0.60843825     1.10700
C214        C  0.22214747  0.23526127  0.50292945     0.98400
C215        C  0.22961876  0.23625185  0.70535687     0.98500
N216        N  0.03149991  0.17168406  0.67369784    -0.06800
N217        N  0.99823991  0.18405241  0.70509726    -0.62200
N218        N  0.05790101  0.19859475  0.56135949    -0.06200
N219        N  0.04489142  0.22791900  0.52774280    -0.58900
N220        N  0.02718996  0.16358804  0.56517499    -0.07500
N221        N  0.99274783  0.16812628  0.53437128    -0.61800
N222        N  0.06312227  0.20605852  0.67055668    -0.06400
N223        N  0.05245081  0.24139735  0.70038262    -0.59000
Mn224      Mn  0.03186091  0.11073103  0.62017989     1.20200
Mn225      Mn  0.11635215  0.20748446  0.61148796     1.10100
Cl226      Cl  0.12172552  0.11679511  0.61323324    -0.86900
C227        C  0.01217437  0.22730873  0.72239964     0.95400
C228        C  0.00487056  0.20780029  0.51104016     0.95200
N229        N  0.06394554  0.67387651  0.20853780    -0.07100
N230        N  0.05180106  0.70377383  0.24354405    -0.59200
N231        N  0.04158721  0.56171434  0.16930362    -0.06800
N232        N  0.01662907  0.52274402  0.17530121    -0.61300
N233        N  0.07506066  0.56479676  0.20151186    -0.06400
N234        N  0.07406481  0.52803269  0.22975352    -0.59200
N235        N  0.02938265  0.67023420  0.17749597    -0.06000
N236        N  0.99309672  0.69702538  0.19125400    -0.61700
C237        C  0.00752970  0.71852197  0.23227330     0.95100
C238        C  0.03779120  0.50200856  0.21281259     0.94900
N239        N  0.06304779  0.56836967  0.02081986    -0.07300
N240        N  0.05168260  0.53780329  0.98598105    -0.59800
N241        N  0.03252835  0.67442030  0.06555525    -0.05400
N242        N  0.00081114  0.70803229  0.06255975    -0.61000
N243        N  0.06425580  0.67828190  0.03136792    -0.07300
N244        N  0.05426777  0.71452553  0.00398974    -0.60000
N245        N  0.03192448  0.56529188  0.05568096    -0.05000
N246        N  0.99901684  0.53306032  0.04484191    -0.61100
Mn247      Mn  0.03266599  0.61752380  0.11694198     1.18400
C248        C  0.01155588  0.51560250  0.00125316     0.97200
C249        C  0.01473231  0.73264572  0.02414933     0.97800
N250        N  0.18441562  0.57034786  0.20373557    -0.07300
N251        N  0.19490346  0.53851463  0.23667736    -0.63600
N252        N  0.20916374  0.68036711  0.16683590    -0.06100
N253        N  0.23704472  0.71743915  0.17246138    -0.64300
N254        N  0.17630970  0.67998770  0.20004284    -0.06800
N255        N  0.18118970  0.71662109  0.22897915    -0.63900
N256        N  0.21650381  0.57001203  0.16970748    -0.05700
N257        N  0.24965179  0.53796120  0.17946998    -0.64600
Mn258      Mn  0.12499252  0.62277290  0.20460056     1.10700
C259        C  0.23571093  0.51814584  0.22147046     0.98400
C260        C  0.21894230  0.73992664  0.21110098     0.98500
N261        N  0.17936757  0.68120472  0.02132248    -0.06800
N262        N  0.19226523  0.71105594  0.98687194    -0.62200
N263        N  0.20872728  0.57123744  0.05464862    -0.06200
N264        N  0.23848948  0.53663709  0.04496131    -0.58900
N265        N  0.17526952  0.57248611  0.02215566    -0.07500
N266        N  0.18141698  0.53912323  0.98977424    -0.61800
N267        N  0.21209955  0.68097225  0.05462745    -0.06400
N268        N  0.24657918  0.71133838  0.04395582    -0.59000
Mn269      Mn  0.12033076  0.62555086  0.02250969     1.20200
Mn270      Mn  0.21297619  0.62530032  0.11152108     1.10100
Cl271      Cl  0.12278925  0.62285329  0.11374823    -0.86900
C272        C  0.23402960  0.73056781  0.00172324     0.95400
C273        C  0.22032755  0.51690069  0.00496955     0.95200
N274        N  0.68383749  0.06987107  0.03370024    -0.07100
N275        N  0.71972239  0.06708275  0.00430637    -0.59200
N276        N  0.57512168  0.02599349  0.05709412    -0.06800
N277        N  0.54318961  0.99276089  0.04591802    -0.61300
N278        N  0.57459724  0.05996353  0.02520482    -0.06400
N279        N  0.54245656  0.05020441  0.99191692    -0.59200
N280        N  0.68506792  0.03540328  0.06505195    -0.06000
N281        N  0.72184347  0.00776443  0.05664023    -0.61700
C282        C  0.74306208  0.02827055  0.01856425     0.95100
C283        C  0.52266563  0.00807448  0.00500463     0.94900
N284        N  0.56641778  0.06327647  0.20274817    -0.07300
N285        N  0.52836682  0.05636795  0.22874710    -0.59800
N286        N  0.67773437  0.02855162  0.18059372    -0.05400
N287        N  0.70670382  0.99421517  0.19456908    -0.61000
N288        N  0.67507427  0.06186522  0.21393925    -0.07300
N289        N  0.70298992  0.05099095  0.25029715    -0.60000
N290        N  0.56978856  0.03035381  0.16923935    -0.05000
N291        N  0.53401713  0.00067985  0.17156269    -0.61100
Mn292      Mn  0.62748108  0.02847445  0.11795397     1.18400
C293        C  0.50827745  0.01754303  0.20851929     0.97200
C294        C  0.72317664  0.00883727  0.23784690     0.97800
N295        N  0.57025447  0.17211469  0.03338948    -0.07300
N296        N  0.53231407  0.17530325  0.00677432    -0.63600
N297        N  0.67894170  0.21339814  0.06471067    -0.06100
N298        N  0.70869782  0.24866168  0.05431389    -0.65900
N299        N  0.67881486  0.18163800  0.02990709    -0.06800
N300        N  0.70799214  0.19514730  0.99529480    -0.63900
N301        N  0.56978760  0.20469308  0.06722943    -0.05700
N302        N  0.53144536  0.23032626  0.06496966    -0.64600
Mn303      Mn  0.62683074  0.12078090  0.02923302     1.10700
C304        C  0.50839851  0.21158555  0.02736232     0.98400
C305        C  0.72732002  0.23672227  0.01100661     0.98500
N306        N  0.67220440  0.17513800  0.21232680    -0.06800
N307        N  0.70059254  0.18554196  0.24778564    -0.62200
N308        N  0.56583749  0.21011537  0.17719453    -0.06200
N309        N  0.53483675  0.24440544  0.18623033    -0.58900
N310        N  0.56439061  0.17783378  0.21079334    -0.07500
N311        N  0.53294028  0.19068908  0.24394557    -0.61800
N312        N  0.67377348  0.20843333  0.17969510    -0.06400
N313        N  0.70307855  0.24245230  0.19249161    -0.59000
Mn314      Mn  0.61940914  0.11922727  0.21114084     1.20200
Mn315      Mn  0.62276070  0.21013430  0.12194809     1.10100
Cl316      Cl  0.62453272  0.11962073  0.12019384    -0.86900
C317        C  0.71976981  0.22721175  0.23458385     0.95400
C318        C  0.51382409  0.23195866  0.22774481     0.95200
C319        C  0.58074617  0.60330186  0.14253662     0.85500
C320        C  0.61754549  0.63573067  0.16609932    -0.54700
C321        C  0.64755427  0.65659398  0.13468882     0.08400
C322        C  0.63842803  0.64449776  0.08263671     0.19400
C323        C  0.55611633  0.63576826  0.10658843    -0.55400
C324        C  0.58668824  0.65678826  0.07554497     0.08600
C325        C  0.60886688  0.56869931  0.11086852    -0.55000
C326        C  0.63933541  0.59019154  0.07998531     0.09100
H327        H  0.61954689  0.64201687  0.20429969     0.13600
H328        H  0.66313329  0.66260010  0.05790468    -0.00600
H329        H  0.51855025  0.64177642  0.10387305     0.13900
H330        H  0.60536075  0.53031933  0.11322040     0.13700
C331        C  0.14418365  0.66652806  0.65435445     0.85500
C332        C  0.12104897  0.62641911  0.68246689    -0.54700
C333        C  0.09780980  0.59423423  0.65466850     0.08400
C334        C  0.10205637  0.60292231  0.60107059     0.19400
C335        C  0.17746646  0.63996721  0.62006894    -0.55400
C336        C  0.15533649  0.60707295  0.59161743     0.08600
C337        C  0.10520412  0.68641260  0.62351170    -0.55000
C338        C  0.08384325  0.65332049  0.59553621     0.09100
H339        H  0.12137555  0.62302118  0.72082852     0.13600
H340        H  0.08332589  0.57640536  0.57844556    -0.00600
H341        H  0.21527615  0.64635496  0.61870655     0.13900
H342        H  0.09700528  0.72409240  0.62167733     0.13700
N343        N  0.27117637  0.31868758  0.41894802    -0.07100
N344        N  0.23617213  0.28929066  0.43104341    -0.59200
N345        N  0.30949957  0.42657659  0.44980886    -0.06800
N346        N  0.30156812  0.45861231  0.48309749    -0.61300
N347        N  0.27663886  0.42812158  0.41685720    -0.06400
N348        N  0.24537579  0.46138530  0.42766373    -0.59200
N349        N  0.30456516  0.31741897  0.45149994    -0.06000
N350        N  0.29330736  0.28672110  0.48534567    -0.61700
C351        C  0.25067628  0.26888659  0.47235119     0.95100
C352        C  0.26173647  0.48028859  0.46915408     0.94900
N353        N  0.45614191  0.42364513  0.42480005    -0.07300
N354        N  0.49148372  0.45129592  0.43928799    -0.59800
N355        N  0.41678390  0.31562851  0.45202653    -0.05400
N356        N  0.42515697  0.28430301  0.48550305    -0.61000
N357        N  0.45097403  0.31543300  0.42015018    -0.07300
N358        N  0.48334977  0.28412442  0.43133240    -0.60000
N359        N  0.42141799  0.42489021  0.45610805    -0.05000
N360        N  0.43227271  0.45421309  0.49182553    -0.61100
Mn361      Mn  0.36293035  0.37110879  0.45287233     1.18400
C362        C  0.47593886  0.47092467  0.48079092     0.97200
C363        C  0.46640603  0.26462476  0.47166336     0.97800
N364        N  0.27803325  0.42808866  0.30143082    -0.07300
N365        N  0.24594254  0.46047742  0.29011540    -0.63600
N366        N  0.31403952  0.31761407  0.27171761    -0.06100
N367        N  0.30542447  0.28553332  0.23830856    -0.64300
N368        N  0.27969273  0.31850319  0.30357816    -0.06800
N369        N  0.24707514  0.28705696  0.29227393    -0.63900
N370        N  0.31190108  0.42723859  0.26901283    -0.05700
N371        N  0.30311755  0.45913693  0.23538594    -0.64600
Mn372      Mn  0.27510447  0.37339944  0.35999294     1.10700
C373        C  0.26182411  0.48004371  0.24886917     0.98400
C374        C  0.26383425  0.26650207  0.25195258     0.98500
N375        N  0.45817099  0.31527993  0.30743640    -0.06800
N376        N  0.49187136  0.28356422  0.29878545    -0.62200
N377        N  0.42399777  0.42604182  0.27700709    -0.06200
N378        N  0.43140494  0.46166024  0.24792166    -0.58900
N379        N  0.45597190  0.42560915  0.31090033    -0.07500
N380        N  0.48605575  0.46097761  0.30529708    -0.61800
N381        N  0.42788998  0.31614768  0.27193953    -0.06400
N382        N  0.44147538  0.28545590  0.23810963    -0.59000
Mn383      Mn  0.45619252  0.37002357  0.36559502     1.20200
Mn384      Mn  0.36954392  0.37158299  0.27120494     1.10100
Cl385      Cl  0.36582337  0.37149734  0.36237468    -0.86900
C386        C  0.48107588  0.26446016  0.25561528     0.95400
C387        C  0.46987136  0.48340419  0.26621610     0.95200
N388        N  0.52714622  0.67121074  0.67327120    -0.07100
N389        N  0.49236599  0.68395982  0.70263607    -0.59200
N390        N  0.56297871  0.69811341  0.56244332    -0.06800
N391        N  0.55664340  0.72666605  0.52629383    -0.61300
N392        N  0.52983355  0.66524303  0.56355235    -0.06400
N393        N  0.50014396  0.67081977  0.52812804    -0.59200
N394        N  0.55915814  0.70525879  0.67125865    -0.06000
N395        N  0.54603711  0.74190156  0.69851291    -0.61700
C396        C  0.50460167  0.72805404  0.71867045     0.95100
C397        C  0.51769031  0.70891459  0.50498516     0.94900
N398        N  0.70774520  0.67004640  0.56076864    -0.07300
N399        N  0.74039409  0.68039821  0.52828293    -0.59800
N400        N  0.67253732  0.69991347  0.67120172    -0.05400
N401        N  0.68126661  0.73123524  0.70520445    -0.61000
N402        N  0.70528089  0.66675225  0.67034822    -0.07300
N403        N  0.73698309  0.67494436  0.70350852    -0.60000
N404        N  0.67485942  0.70302417  0.56146229    -0.05000
N405        N  0.68472165  0.73625114  0.52953906    -0.61100
Mn406      Mn  0.61747704  0.70270938  0.61675090     1.18400
C407        C  0.72568831  0.72178396  0.50872493     0.97200
C408        C  0.72122510  0.71482980  0.72525519     0.97800
N409        N  0.52591689  0.55275217  0.56500848    -0.07300
N410        N  0.49093601  0.54110254  0.53572374    -0.63600
N411        N  0.56435413  0.52365451  0.67197222    -0.06100
N412        N  0.55669310  0.49166755  0.70496029    -0.64300
N413        N  0.53173296  0.55691030  0.67400437    -0.06800
N414        N  0.50123884  0.54810865  0.70840525    -0.63900
N415        N  0.55975619  0.52080076  0.56224982    -0.05700
N416        N  0.54850912  0.48735786  0.53048328    -0.64600
Mn417      Mn  0.52756222  0.61150139  0.61933150     1.10700
C418        C  0.50563154  0.50058106  0.51376492     0.98400
C419        C  0.51763921  0.50760185  0.72765115     0.98500
N420        N  0.71054304  0.55219734  0.66870307    -0.06800
N421        N  0.74573712  0.53923206  0.69709686    -0.62200
N422        N  0.67354662  0.52292991  0.55971675    -0.06200
N423        N  0.68553867  0.48977412  0.52825213    -0.58900
N424        N  0.70517987  0.55731208  0.55995245    -0.07500
N425        N  0.73866720  0.54870026  0.52874280    -0.61800
N426        N  0.67689350  0.51972930  0.66944626    -0.06400
N427        N  0.68825310  0.48497977  0.69900656    -0.59000
Mn428      Mn  0.70800122  0.61177260  0.61507862     1.20200
Mn429      Mn  0.61843367  0.52076405  0.61564016     1.10100
Cl430      Cl  0.61786964  0.61165396  0.61690379    -0.86900
C431        C  0.73119253  0.49748343  0.71661447     0.95400
C432        C  0.72611292  0.50675972  0.50895319     0.95200
C433        C  0.58545978  0.15244315  0.59409342     0.85500
C434        C  0.56204670  0.12377154  0.63422521    -0.54700
C435        C  0.59277596  0.09440490  0.65678883     0.08400
C436        C  0.64326774  0.09683977  0.63929114     0.19400
C437        C  0.62593316  0.17875643  0.62024839    -0.55400
C438        C  0.65573974  0.14901006  0.64337823     0.08600
C439        C  0.61014468  0.11556132  0.56215820    -0.55000
C440        C  0.64017344  0.08695384  0.58620856     0.09100
H441        H  0.52496262  0.12598747  0.64383377     0.13600
H442        H  0.66781138  0.07305231  0.65856668    -0.00600
H443        H  0.62932496  0.21696095  0.62416426     0.13900
H444        H  0.60527745  0.11311797  0.52385046     0.13700
C445        C  0.08576731  0.07901923  0.15036549     0.85500
C446        C  0.12153566  0.05355042  0.11829769    -0.54700
C447        C  0.14555045  0.08314562  0.08899107     0.08400
C448        C  0.13260875  0.13577088  0.09416233     0.19400
C449        C  0.11602661  0.11605445  0.17682418    -0.55400
C450        C  0.13987024  0.14591315  0.14729594     0.08600
C451        C  0.05487062  0.10667777  0.11635926    -0.55000
C452        C  0.07878359  0.13728775  0.08796132     0.09100
H453        H  0.12996039  0.01605901  0.11940152     0.13600
H454        H  0.15277791  0.15987690  0.07043243    -0.00600
H455        H  0.11995478  0.11753780  0.21527251     0.13900
H456        H  0.01675739  0.10235680  0.11514015     0.13700
C457        C  0.23431241  0.23717376  0.22075760    -0.01100
C458        C  0.18639834  0.24880918  0.21831464    -0.13000
C459        C  0.15553620  0.22155142  0.19109830     0.01100
C460        C  0.17257162  0.18154706  0.16625416    -0.01200
C461        C  0.22096434  0.17142681  0.16604274    -0.12900
C462        C  0.25219277  0.19916751  0.19307704     0.01000
H463        H  0.17287524  0.27929493  0.23796980     0.14000
H464        H  0.23393220  0.14066303  0.14659181     0.14000
C465        C  0.30146240  0.18622942  0.19399635     0.35600
C466        C  0.10668645  0.23558448  0.18952353     0.35500
N467        N  0.34089199  0.17562198  0.19456156    -0.44700
N468        N  0.06798389  0.24845024  0.18878852    -0.44700
C469        C  0.49570184  0.23689771  0.50351751    -0.01100
C470        C  0.48065833  0.19184248  0.51736931    -0.13000
C471        C  0.50909608  0.16391784  0.54639360     0.01100
C472        C  0.55203670  0.18270266  0.56494658    -0.01200
C473        C  0.56667501  0.22813149  0.54999614    -0.12900
C474        C  0.53909991  0.25503953  0.51965780     0.01000
H475        H  0.44760361  0.17770833  0.50380404     0.14000
H476        H  0.60074182  0.24247690  0.55949572     0.14000
C477        C  0.55639475  0.30121523  0.50538317     0.35600
C478        C  0.49434769  0.11536631  0.55396578     0.35500
N479        N  0.57031950  0.33805065  0.49374327    -0.44700
N480        N  0.48242047  0.07645219  0.55971701    -0.44700
C481        C  0.23594559  0.51482668  0.49958849    -0.01100
C482        C  0.19421589  0.53522460  0.48254809    -0.13000
C483        C  0.16723717  0.56574012  0.51136330     0.01100
C484        C  0.18185506  0.57583939  0.55847490    -0.01200
C485        C  0.22363639  0.55578174  0.57525003    -0.12900
C486        C  0.25094033  0.52612090  0.54651136     0.01000
H487        H  0.18252571  0.52732407  0.44657789     0.14000
H488        H  0.23491346  0.56291662  0.61153794     0.14000
C489        C  0.29376437  0.50784803  0.56715725     0.35600
C490        C  0.12589533  0.58684517  0.49065049     0.35500
N491        N  0.32804883  0.49347759  0.58396705    -0.44700
N492        N  0.09306659  0.60277367  0.47243153    -0.44700
C493        C  0.49631607  0.52016067  0.24071124    -0.01100
C494        C  0.54554508  0.51894431  0.24278024    -0.13000
C495        C  0.57286814  0.54637093  0.21219948     0.01100
C496        C  0.55086948  0.57698243  0.17906749    -0.01200
C497        C  0.50124222  0.58065601  0.17998231    -0.12900
C498        C  0.47399872  0.55230958  0.21003444     0.01000
H499        H  0.56291594  0.49424940  0.26636750     0.14000
H500        H  0.48265329  0.60437852  0.15682929     0.14000
C501        C  0.42319753  0.55675577  0.20830729     0.35600
C502        C  0.62350443  0.54030829  0.21422587     0.35500
N503        N  0.38255532  0.56045328  0.20672018    -0.44700
N504        N  0.66399721  0.53527186  0.21569863    -0.44700
C505        C  0.80723729  0.31504981  0.31883620    -0.01100
C506        C  0.81112420  0.26584821  0.32322874    -0.13000
C507        C  0.78198588  0.23603707  0.29668368     0.01100
C508        C  0.74870896  0.25629864  0.26578710    -0.01200
C509        C  0.74268924  0.30567857  0.26435530    -0.12900
C510        C  0.77179204  0.33531063  0.29092350     0.01000
H511        H  0.83909099  0.25087545  0.34467149     0.14000
H512        H  0.71592937  0.32112959  0.24177358     0.14000
C513        C  0.76611287  0.38623483  0.28782384     0.35600
C514        C  0.78952226  0.18533878  0.29896420     0.35500
N515        N  0.76182254  0.42704381  0.28559527    -0.44700
N516        N  0.79557193  0.14473028  0.30070893    -0.44700
C517        C  0.01593109  0.46443452  0.24022505    -0.01100
C518        C  0.02132201  0.46610501  0.28970847    -0.13000
C519        C  0.99097023  0.44083497  0.31887366     0.01100
C520        C  0.95408713  0.41356001  0.29828323    -0.01200
C521        C  0.95397672  0.40652658  0.24841224    -0.12900
C522        C  0.98435099  0.43206759  0.21934127     0.01000
H523        H  0.04723196  0.48959482  0.30598412     0.14000
H524        H  0.93073976  0.38154040  0.23105752     0.14000
C525        C  0.98215297  0.42478453  0.16833889     0.35600
C526        C  0.99858246  0.44405531  0.36969400     0.35500
N527        N  0.98049065  0.41886211  0.12752273    -0.44700
N528        N  0.00557773  0.44615496  0.41023639    -0.44700
C529        C  0.97313795  0.23212629  0.47976920    -0.01100
C530        C  0.94167884  0.26465876  0.50028409    -0.13000
C531        C  0.91708343  0.29600878  0.47166144     0.01100
C532        C  0.92379738  0.29367577  0.42200578    -0.01200
C533        C  0.95184647  0.25780777  0.40153083    -0.12900
C534        C  0.97741781  0.22751550  0.43025015     0.01000
H535        H  0.93888240  0.26768137  0.53876366     0.14000
H536        H  0.95637650  0.25578452  0.36316432     0.14000
C537        C  0.01036297  0.19472930  0.40845604     0.35600
C538        C  0.88944658  0.33291719  0.49438580     0.35500
N539        N  0.03701404  0.16878719  0.39091029    -0.44700
N540        N  0.86750979  0.36240022  0.51298926    -0.44700
C541        C  0.82696088  0.43009278  0.42434581    -0.01100
C542        C  0.77918388  0.41640889  0.42289082    -0.13000
C543        C  0.74521681  0.44046328  0.45005771     0.01100
C544        C  0.75907847  0.47945347  0.47870720    -0.01200
C545        C  0.80698710  0.49265438  0.48027292    -0.12900
C546        C  0.84087605  0.46815244  0.45394582     0.01000
H547        H  0.76815710  0.38719290  0.39998411     0.14000
H548        H  0.81852866  0.52170020  0.50315633     0.14000
C549        C  0.88972701  0.48148828  0.46012308     0.35600
C550        C  0.69670985  0.42484364  0.44705106     0.35500
N551        N  0.92861207  0.49272748  0.46592741    -0.44700
N552        N  0.65793951  0.41198337  0.44453170    -0.44700
C553        C  0.24451600  0.77643644  0.23808409    -0.01100
C554        C  0.23434684  0.78058773  0.28691657    -0.13000
C555        C  0.26593483  0.80300382  0.31737650     0.01100
C556        C  0.30729426  0.82296525  0.29848910    -0.01200
C557        C  0.31480053  0.82424435  0.24937788    -0.12900
C558        C  0.28369095  0.80089380  0.21876224     0.01000
H559        H  0.20358281  0.76328431  0.30206511     0.14000
H560        H  0.34621747  0.84120738  0.23525701     0.14000
C561        C  0.29405097  0.80098090  0.16834917     0.35600
C562        C  0.25529707  0.80487466  0.36773227     0.35500
N563        N  0.30261241  0.80110528  0.12800931    -0.44700
N564        N  0.24587277  0.80722145  0.40781925    -0.44700
C565        C  0.42285587  0.92904153  0.29183937    -0.01100
C566        C  0.41873015  0.97814154  0.29851719    -0.13000
C567        C  0.44269427  0.00898039  0.26825865     0.01100
C568        C  0.47091193  0.98987752  0.23123882    -0.01200
C569        C  0.46935042  0.94096571  0.22108749    -0.12900
C570        C  0.44575242  0.91034930  0.25139324     0.01000
H571        H  0.39927279  0.99213354  0.32889271     0.14000
H572        H  0.48964427  0.92599168  0.19178271     0.14000
C573        C  0.44737340  0.85981320  0.24166969     0.35600
C574        C  0.43919261  0.05955159  0.27696679     0.35500
N575        N  0.44852213  0.81931787  0.23410852    -0.44700
N576        N  0.43644126  0.10010693  0.28371033    -0.44700
C577        C  0.31908343  0.92954237  0.41921266    -0.01100
C578        C  0.33611434  0.95100599  0.46113120    -0.13000
C579        C  0.30746885  0.98050189  0.48853304     0.01100
C580        C  0.26117296  0.98976359  0.47336370    -0.01200
C581        C  0.24411836  0.96967180  0.43131143    -0.12900
C582        C  0.27263639  0.94000275  0.40370144     0.01000
H583        H  0.37181335  0.94425301  0.47304114     0.14000
H584        H  0.20824652  0.97707792  0.42019587     0.14000
C585        C  0.25196288  0.92111915  0.36061981     0.35600
C586        C  0.32533266  0.99801877  0.53361484     0.35500
N587        N  0.23401007  0.90783863  0.32597092    -0.44700
N588        N  0.33947193  0.01164699  0.56990781    -0.44700
C589        C  0.43851667  0.79712681  0.41266944    -0.01100
C590        C  0.48822313  0.79591022  0.40895241    -0.13000
C591        C  0.51482801  0.76507604  0.43647791     0.01100
C592        C  0.49187796  0.73446080  0.46837572    -0.01200
C593        C  0.44266073  0.73281554  0.46987532    -0.12900
C594        C  0.41593052  0.76389944  0.44299627     0.01000
H595        H  0.50753257  0.81899398  0.38558718     0.14000
H596        H  0.42483647  0.70906148  0.49434125     0.14000
C597        C  0.36535138  0.76162763  0.44913932     0.35600
C598        C  0.56563182  0.76557682  0.43118911     0.35500
N599        N  0.32498444  0.75911216  0.45488206    -0.44700
N600        N  0.60627433  0.76595072  0.42682604    -0.44700
C601        C  0.25988497  0.26786923  0.73331338    -0.01100
C602        C  0.23886288  0.30073798  0.76456066    -0.13000
C603        C  0.26646780  0.32660081  0.79668200     0.01100
C604        C  0.31546631  0.31875150  0.79764431    -0.01200
C605        C  0.33678622  0.28951809  0.76342382    -0.12900
C606        C  0.30955966  0.26451410  0.73074686     0.01000
H607        H  0.20077332  0.30446870  0.76554634     0.14000
H608        H  0.37468068  0.28457737  0.76368757     0.14000
C609        C  0.33374971  0.23590311  0.69530993     0.35600
C610        C  0.24325370  0.35832493  0.82989600     0.35500
N611        N  0.35329016  0.21326660  0.66683955    -0.44700
N612        N  0.22369638  0.38380445  0.85579008    -0.44700
C613        C  0.30270310  0.42192006  0.92276034    -0.01100
C614        C  0.27526385  0.40466289  0.96100912    -0.13000
C615        C  0.24753301  0.43508115  0.98826661     0.01100
C616        C  0.24531853  0.48291549  0.97584206    -0.01200
C617        C  0.26786478  0.49944418  0.93495658    -0.12900
C618        C  0.29658470  0.46941310  0.90805887     0.01000
H619        H  0.27649623  0.36749559  0.97071465     0.14000
H620        H  0.26421780  0.53644019  0.92499654     0.14000
C621        C  0.31868135  0.48936802  0.86649641     0.35600
C622        C  0.22217591  0.41675989  0.02892739     0.35500
N623        N  0.33432477  0.50681983  0.83276663    -0.44700
N624        N  0.20182744  0.40213417  0.06148398    -0.44700
C625        C  0.47119457  0.23723561  0.00365635    -0.01100
C626        C  0.47206143  0.28663152  0.00864003    -0.13000
C627        C  0.44731799  0.31480310  0.97768798     0.01100
C628        C  0.41950374  0.29336043  0.94142034    -0.01200
C629        C  0.41477194  0.24340959  0.94009213    -0.12900
C630        C  0.44068883  0.21524487  0.97089413     0.01000
H631        H  0.49504195  0.30377811  0.03450688     0.14000
H632        H  0.39186369  0.22548645  0.91516425     0.14000
C633        C  0.43536563  0.16415044  0.96842876     0.35600
C634        C  0.45314767  0.36575706  0.98302080     0.35500
N635        N  0.43089732  0.12325451  0.96676650    -0.44700
N636        N  0.45790553  0.40646263  0.98718472    -0.44700
C637        C  0.43652055  0.41925748  0.81946613    -0.01100
C638        C  0.43746085  0.46830810  0.82807627    -0.13000
C639        C  0.46339708  0.49835806  0.79842793     0.01100
C640        C  0.49076752  0.47851660  0.76122423    -0.01200
C641        C  0.49121530  0.42914046  0.75406311    -0.12900
C642        C  0.46396402  0.39948729  0.78244547     0.01000
H643        H  0.41848518  0.48297183  0.85833792     0.14000
H644        H  0.51185186  0.41366199  0.72524204     0.14000
C645        C  0.46460409  0.34899847  0.77257825     0.35600
C646        C  0.46186868  0.54897008  0.80737792     0.35500
N647        N  0.46567531  0.30860263  0.76450467    -0.44700
N648        N  0.46025739  0.58953189  0.81447892    -0.44700
C649        C  0.16699452  0.70615472  0.68258318    -0.01100
C650        C  0.15761410  0.71188643  0.73169219    -0.13000
C651        C  0.18294065  0.74458291  0.75875925     0.01100
C652        C  0.21707848  0.77273130  0.73630222    -0.01200
C653        C  0.22031055  0.77338797  0.68663975    -0.12900
C654        C  0.19533566  0.74059388  0.65948256     0.01000
H655        H  0.13092301  0.69132659  0.74971314     0.14000
H656        H  0.24529459  0.79676547  0.66908065     0.14000
C657        C  0.20117605  0.74219041  0.60831419     0.35600
C658        C  0.17401090  0.74806707  0.80941518     0.35500
N659        N  0.20609223  0.74351429  0.56740582    -0.44700
N660        N  0.16675673  0.75101699  0.84993345    -0.44700
C661        C  0.18151126  0.06403835  0.05715664    -0.01100
C662        C  0.17115211  0.06118345  0.00853760    -0.13000
C663        C  0.19809239  0.03225589  0.97844028     0.01100
C664        C  0.23604594  0.00659884  0.99747601    -0.01200
C665        C  0.24705264  0.01057585  0.04589027    -0.12900
C666        C  0.22010284  0.03904718  0.07590187     0.01000
H667        H  0.14019715  0.07889974  0.99480294     0.14000
H668        H  0.27678856  0.99134990  0.06035879     0.14000
C669        C  0.23153917  0.04043299  0.12605326     0.35600
C670        C  0.18387312  0.02642906  0.92938664     0.35500
N671        N  0.24077749  0.04113802  0.16617754    -0.44700
N672        N  0.17203467  0.02140557  0.89024431    -0.44700
C673        C  0.57016544  0.68546794  0.03624994    -0.01100
C674        C  0.58068530  0.73409999  0.03581653    -0.13000
C675        C  0.55700874  0.76386829  0.00449204     0.01100
C676        C  0.52316362  0.74410105  0.97334186    -0.01200
C677        C  0.51785961  0.69462857  0.96972944    -0.12900
C678        C  0.54050143  0.66523269  0.00153865     0.01000
H679        H  0.60492391  0.74906732  0.06180094     0.14000
H680        H  0.49272255  0.67898143  0.94503031     0.14000
C681        C  0.53110327  0.61470599  0.99943376     0.35600
C682        C  0.56694220  0.81425608  0.00575185     0.35500
N683        N  0.52362923  0.57425454  0.99799393    -0.44700
N684        N  0.57517548  0.85458404  0.00655170    -0.44700
C685        C  0.53561355  0.99754552  0.75436095    -0.01100
C686        C  0.54125479  0.04530970  0.76845307    -0.13000
C687        C  0.56212668  0.07758563  0.73783189     0.01100
C688        C  0.57873998  0.06139386  0.69352626    -0.01200
C689        C  0.58059633  0.01272488  0.68298416    -0.12900
C690        C  0.55922951  0.98033454  0.71344382     0.01000
H691        H  0.52538898  0.05857806  0.80117380     0.14000
H692        H  0.59605072  0.00044261  0.64966096     0.14000
C693        C  0.56021017  0.93040902  0.70091691     0.35600
C694        C  0.56425854  0.12715168  0.75163316     0.35500
N695        N  0.56118565  0.89036833  0.69107500    -0.44700
N696        N  0.56633888  0.16678217  0.76291489    -0.44700
C697        C  0.69299035  0.16616672  0.67465748    -0.01100
C698        C  0.68837776  0.15911697  0.72377413    -0.13000
C699        C  0.71806654  0.18304876  0.75549942     0.01100
C700        C  0.75336990  0.21323941  0.73728842    -0.01200
C701        C  0.76137685  0.21506489  0.68786194    -0.12900
C702        C  0.73099507  0.19224644  0.65645006     0.01000
H703        H  0.66015576  0.13699168  0.73733378     0.14000
H704        H  0.78922567  0.23717252  0.67332093     0.14000
C705        C  0.73851506  0.19718259  0.60581358     0.35600
C706        C  0.71096962  0.17683856  0.80603233     0.35500
N707        N  0.74448632  0.20095737  0.56523346    -0.44700
N708        N  0.70520297  0.17160385  0.84647740    -0.44700
C709        C  0.05363573  0.17036882  0.05686068    -0.01100
C710        C  0.06830398  0.17550186  0.00943526    -0.13000
C711        C  0.04266507  0.20397315  0.97819056     0.01100
C712        C  0.00214538  0.22819692  0.99510258    -0.01200
C713        C  0.98805307  0.22298003  0.04246646    -0.12900
C714        C  0.01328767  0.19499490  0.07335696     0.01000
H715        H  0.09898806  0.15635793  0.99650322     0.14000
H716        H  0.95742850  0.24177413  0.05620090     0.14000
C717        C  0.99643821  0.19344386  0.12187480     0.35600
C718        C  0.05801003  0.20646926  0.92915633     0.35500
N719        N  0.98109224  0.19285142  0.16008108    -0.44700
N720        N  0.07029975  0.20823174  0.88984430    -0.44700
C721        C  0.73602135  0.50694941  0.99726939    -0.01100
C722        C  0.71280536  0.54480906  0.97571770    -0.13000
C723        C  0.68147119  0.57315161  0.00182091     0.01100
C724        C  0.67268937  0.56283416  0.05022692    -0.01200
C725        C  0.69616189  0.52481116  0.07152701    -0.12900
C726        C  0.72762088  0.49687953  0.04562708     0.01000
H727        H  0.71898016  0.55199612  0.93830179     0.14000
H728        H  0.68988663  0.51678463  0.10873600     0.14000
C729        C  0.74840538  0.45649185  0.06893776     0.35600
C730        C  0.65798837  0.61100385  0.97713451     0.35500
N731        N  0.76472066  0.42406336  0.08774363    -0.44700
N732        N  0.64019388  0.64124518  0.95620466    -0.44700
C733        C  0.00288733  0.50155081  0.72435625    -0.01100
C734        C  0.03082233  0.48333287  0.68724421    -0.13000
C735        C  0.06182668  0.51311409  0.66294922     0.01100
C736        C  0.06384070  0.56149345  0.67585328    -0.01200
C737        C  0.03380022  0.57972885  0.71151288    -0.12900
C738        C  0.00399643  0.54985497  0.73647694     0.01000
H739        H  0.02987126  0.44561789  0.67880567     0.14000
H740        H  0.03450119  0.61728547  0.72070015     0.14000
C741        C  0.97590890  0.56903835  0.77518767     0.35600
C742        C  0.09306624  0.49285775  0.62746747     0.35500
N743        N  0.95352653  0.58408797  0.80639632    -0.44700
N744        N  0.11817005  0.47674075  0.59902978    -0.44700
C745        C  0.74079453  0.74800894  0.20735398    -0.01100
C746        C  0.75710430  0.70337728  0.19159094    -0.13000
C747        C  0.72859828  0.67410746  0.16351767     0.01100
C748        C  0.68364042  0.69001968  0.15052840    -0.01200
C749        C  0.66976620  0.73659162  0.16072287    -0.12900
C750        C  0.69814280  0.76604691  0.18878014     0.01000
H751        H  0.79047167  0.68963678  0.20418428     0.14000
H752        H  0.63522146  0.74871555  0.14962877     0.14000
C753        C  0.68094938  0.81313536  0.19998788     0.35600
C754        C  0.74453538  0.62667350  0.15190024     0.35500
N755        N  0.66690515  0.85080018  0.20883788    -0.44700
N756        N  0.75774833  0.58877280  0.14282021    -0.44700
C757        C  0.98989072  0.99250075  0.23117793    -0.01100
C758        C  0.99270092  0.04120580  0.24047221    -0.13000
C759        C  0.02524007  0.06917873  0.21672840     0.01100
C760        C  0.05491696  0.04837703  0.18144305    -0.01200
C761        C  0.04919779  0.99965003  0.17031532    -0.12900
C762        C  0.01812202  0.97145921  0.19583655     0.01000
H763        H  0.97115201  0.05716986  0.26836355     0.14000
H764        H  0.06754710  0.98279922  0.14104610     0.14000
C765        C  0.01574738  0.92118369  0.18482613     0.35600
C766        C  0.02779830  0.11854802  0.23118106     0.35500
N767        N  0.01431679  0.88089105  0.17619369    -0.44700
N768        N  0.02997283  0.15753727  0.24456116    -0.44700
C769        C  0.99873453  0.71601948  0.49213107    -0.01100
C770        C  0.97796252  0.68267004  0.52262153    -0.13000
C771        C  0.00577297  0.65838110  0.55512347     0.01100
C772        C  0.05434429  0.66811708  0.55658099    -0.01200
C773        C  0.07549648  0.69776835  0.52314494    -0.12900
C774        C  0.04826984  0.72134422  0.49041250     0.01000
H775        H  0.93998687  0.67763282  0.52290248     0.14000
H776        H  0.11341878  0.70358096  0.52375989     0.14000
C777        C  0.07241131  0.75077944  0.45605268     0.35600
C778        C  0.98362339  0.62641461  0.58838653     0.35500
N779        N  0.09209129  0.77419216  0.42868711    -0.44700
N780        N  0.96570677  0.60070338  0.61486173    -0.44700
C781        C  0.73080457  0.98820453  0.51714533    -0.01100
C782        C  0.68167949  0.98117618  0.51526861    -0.13000
C783        C  0.65128827  0.01307269  0.53772774     0.01100
C784        C  0.67023829  0.05174486  0.56319864    -0.01200
C785        C  0.71910839  0.05710024  0.56799901    -0.12900
C786        C  0.74965352  0.02580305  0.54487039     0.01000
H787        H  0.66689496  0.95249752  0.49449925     0.14000
H788        H  0.73326191  0.08645960  0.58850270     0.14000
C789        C  0.79983708  0.03392080  0.54953681     0.35600
C790        C  0.60099730  0.00543905  0.53393321     0.35500
N791        N  0.84000124  0.04066406  0.55312951    -0.44700
N792        N  0.56074248  0.99917612  0.53074209    -0.44700
C793        C  0.82920987  0.94171914  0.92999866    -0.01100
C794        C  0.79983494  0.97539767  0.90943075    -0.13000
C795        C  0.77433035  0.00685587  0.93761938     0.01100
C796        C  0.77753940  0.00403807  0.98786806    -0.01200
C797        C  0.81024591  0.97311832  0.00831603    -0.12900
C798        C  0.83687112  0.94239098  0.97955734     0.01000
H799        H  0.79504032  0.97541651  0.87106703     0.14000
H800        H  0.81361778  0.97170627  0.04675002     0.14000
C801        C  0.86964311  0.91067604  0.00208728     0.35600
C802        C  0.74208893  0.03811536  0.91347940     0.35500
N803        N  0.89618110  0.88625236  0.02116700    -0.44700
N804        N  0.71623823  0.06298731  0.89400188    -0.44700
C805        C  0.94054874  0.92250744  0.81290384    -0.01100
C806        C  0.96776153  0.89997947  0.77757953    -0.13000
C807        C  0.00025804  0.92564218  0.75079143     0.01100
C808        C  0.00594605  0.97476179  0.75981357    -0.01200
C809        C  0.98073052  0.99668215  0.79682925    -0.12900
C810        C  0.94819274  0.97099483  0.82360952     0.01000
H811        H  0.96241246  0.86247582  0.76984130     0.14000
H812        H  0.98506206  0.03451953  0.80348580     0.14000
C813        C  0.92130496  0.99642023  0.85930484     0.35600
C814        C  0.02362648  0.90152696  0.71164311     0.35500
N815        N  0.90063196  0.01797913  0.88775976    -0.44700
N816        N  0.04193194  0.88208498  0.68012513    -0.44700
C817        C  0.80696318  0.80452800  0.81284151    -0.01100
C818        C  0.75753704  0.80389647  0.81907306    -0.13000
C819        C  0.72897741  0.77325316  0.79257675     0.01100
C820        C  0.74964206  0.74255685  0.75881723    -0.01200
C821        C  0.79875289  0.74054973  0.75441976    -0.12900
C822        C  0.82750205  0.77062952  0.78121818     0.01000
H823        H  0.74008314  0.82628839  0.84533173     0.14000
H824        H  0.81488054  0.71616369  0.72897716     0.14000
C825        C  0.87800687  0.76518856  0.77572134     0.35600
C826        C  0.67880781  0.77253667  0.80210060     0.35500
N827        N  0.91836267  0.76033598  0.77147537    -0.44700
N828        N  0.63870929  0.77163169  0.81007297    -0.44700
C829        C  0.93005444  0.81833081  0.93717478    -0.01100
C830        C  0.90830517  0.78742585  0.96924017    -0.13000
C831        C  0.93499991  0.76103202  0.00041778     0.01100
C832        C  0.98459049  0.76647492  0.00017519    -0.01200
C833        C  0.00602441  0.80023106  0.97076063    -0.12900
C834        C  0.97907866  0.82625982  0.93901064     0.01000
H835        H  0.87032090  0.78225065  0.96827944     0.14000
H836        H  0.04412617  0.80433458  0.97075038     0.14000
C837        C  0.00315638  0.85758876  0.90650392     0.35600
C838        C  0.91057257  0.72539727  0.02802373     0.35500
N839        N  0.02320416  0.88254996  0.88085672    -0.44700
N840        N  0.89071767  0.69667745  0.04958168    -0.44700
loop_ 
_geom_bond_atom_site_label_1 
_geom_bond_atom_site_label_2 
_geom_bond_distance 
_geom_bond_site_symmetry_2 
_ccdc_geom_bond_type 
C1            C2   1.523       .  S
C1            C7   1.533       .  S
C1            C5   1.539       .  S
C1          C817   1.520       .  S
C2            H9   1.087       .  S
C2            C3   1.359       .  D
C3            C4   1.523       .  S
C3          C829   1.456       .  S
C4            C8   1.530       .  S
C4            C6   1.523       .  S
C4           H10   1.110       .  S
C5           H11   1.085       .  S
C5            C6   1.363       .  D
C6          C793   1.462       .  S
C7           H12   1.087       .  S
C7            C8   1.366       .  D
C8          C805   1.468       .  S
N13          N14   1.314       .  A
N13          N19   1.316       .  A
N13         Mn42   2.186       .  S
N14          C21   1.350       .  A
N15          N17   1.318       .  A
N15          N16   1.334       .  A
N15         Mn31   2.274       .  S
N16          C22   1.364       .  A
N17          N18   1.331       .  A
N17         Mn42   2.246       .  S
N18          C22   1.359       .  A
N19          N20   1.314       .  A
N19         Mn31   2.174       .  S
N20          C21   1.350       .  A
C21         C781   1.462       .  S
C22         C294   1.520   1_565  S
N23          N29   1.316       .  A
N23          N24   1.312       .  A
N23         Mn53   2.169       .  S
N24          C32   1.347       .  A
N25          N26   1.334       .  A
N25          N27   1.319       .  A
N25         Mn31   2.277       .  S
N26          C33   1.365       .  A
N27          N28   1.335       .  A
N27         Mn53   2.268       .  S
N28          C33   1.363       .  A
N29          N30   1.311       .  A
N29         Mn31   2.166       .  S
N30          C32   1.348       .  A
Mn31        Cl55   2.565       .  S
C32         C757   1.443       .  S
C33         C203   1.533   1_655  S
N34          N35   1.316       .  A
N34          N40   1.315       .  A
N34         Mn42   2.184       .  S
N35          C43   1.351       .  A
N36          N38   1.317       .  A
N36          N37   1.330       .  A
N36         Mn54   2.252       .  S
N37          C44   1.360       .  A
N38          N39   1.330       .  A
N38         Mn42   2.243       .  S
N39          C44   1.359       .  A
N40          N41   1.316       .  A
N40         Mn54   2.184       .  S
N41          C43   1.352       .  A
Mn42        Cl55   2.553       .  S
C43         C745   1.472       .  S
C44         C407   1.510       .  S
N45          N46   1.309       .  A
N45          N51   1.318       .  A
N45         Mn53   2.167       .  S
N46          C56   1.345       .  A
N47          N48   1.331       .  A
N47          N49   1.318       .  A
N47         Mn54   2.249       .  S
N48          C57   1.360       .  A
N49          N50   1.332       .  A
N49         Mn53   2.257       .  S
N50          C57   1.360       .  A
N51          N52   1.316       .  A
N51         Mn54   2.179       .  S
N52          C56   1.348       .  A
Mn53        Cl55   2.553       .  S
Mn54        Cl55   2.561       .  S
C56         C769   1.451       .  S
C57         C237   1.514   1_655  S
N58          N59   1.334       .  A
N58          N64   1.320       .  A
N58         Mn87   2.265       .  S
N59          C66   1.362       .  A
N60          N62   1.317       .  A
N60          N61   1.313       .  A
N60         Mn76   2.195       .  S
N61          C67   1.353       .  A
N62          N63   1.316       .  A
N62         Mn87   2.170       .  S
N63          C67   1.348       .  A
N64          N65   1.333       .  A
N64         Mn76   2.273       .  S
N65          C66   1.363       .  A
C66         C248   1.527   1_656  S
C67         C712   1.467   1_655  S
N68          N74   1.319       .  A
N68          N69   1.330       .  A
N68         Mn98   2.250       .  S
N69          C77   1.359       .  A
N70          N71   1.315       .  A
N70          N72   1.320       .  A
N70         Mn76   2.186       .  S
N71          C78   1.348       .  A
N72          N73   1.318       .  A
N72         Mn98   2.201       .  S
N73          C78   1.351       .  A
N74          N75   1.334       .  A
N74         Mn76   2.272       .  S
N75          C77   1.364       .  A
Mn76       Cl100   2.556       .  S
C77         C305   1.519   1_556  S
C78         C721   1.459       .  S
N79          N80   1.332       .  A
N79          N85   1.317       .  A
N79         Mn87   2.260       .  S
N80          C88   1.363       .  A
N81          N83   1.317       .  A
N81          N82   1.314       .  A
N81         Mn99   2.167       .  S
N82          C89   1.344       .  A
N83          N84   1.313       .  A
N83         Mn87   2.175       .  S
N84          C89   1.346       .  A
N85          N86   1.329       .  A
N85         Mn99   2.238       .  S
N86          C88   1.357       .  A
Mn87       Cl100   2.569       .  S
C88         C227   1.510   1_655  S
C89         C733   1.437   1_655  S
N90          N91   1.332       .  A
N90          N96   1.318       .  A
N90         Mn98   2.262       .  S
N91         C101   1.362       .  A
N92          N93   1.309       .  A
N92          N94   1.314       .  A
N92         Mn99   2.158       .  S
N93         C102   1.345       .  A
N94          N95   1.320       .  A
N94         Mn98   2.193       .  S
N95         C102   1.356       .  A
N96          N97   1.332       .  A
N96         Mn99   2.253       .  S
N97         C101   1.360       .  A
Mn98       Cl100   2.569       .  S
Mn99       Cl100   2.544       .  S
C101        C431   1.516       .  S
C102        C700   1.461       .  S
N103        N104   1.312       .  A
N103        N109   1.317       .  A
N103       Mn132   2.172       .  S
N104        C111   1.347       .  A
N105        N107   1.317       .  A
N105        N106   1.335       .  A
N105       Mn121   2.278       .  S
N106        C112   1.365       .  A
N107        N108   1.333       .  A
N107       Mn132   2.251       .  S
N108        C112   1.360       .  A
N109        N110   1.318       .  A
N109       Mn121   2.194       .  S
N110        C111   1.354       .  A
C111        C676   1.458       .  S
C112        C272   1.526   1_556  S
N113        N119   1.320       .  A
N113        N114   1.316       .  A
N113       Mn143   2.186       .  S
N114        C122   1.349       .  A
N115        N116   1.335       .  A
N115        N117   1.318       .  A
N115       Mn121   2.270       .  S
N116        C123   1.364       .  A
N117        N118   1.333       .  A
N117       Mn143   2.268       .  S
N118        C123   1.362       .  A
N119        N120   1.314       .  A
N119       Mn121   2.193       .  S
N120        C122   1.350       .  A
Mn121      Cl145   2.563       .  S
C122        C664   1.452   1_565  S
C123        C283   1.529   1_566  S
N124        N125   1.313       .  A
N124        N130   1.315       .  A
N124       Mn132   2.172       .  S
N125        C133   1.351       .  A
N126        N128   1.316       .  A
N126        N127   1.331       .  A
N126       Mn144   2.245       .  S
N127        C134   1.361       .  A
N128        N129   1.330       .  A
N128       Mn132   2.241       .  S
N129        C134   1.358       .  A
N130        N131   1.311       .  A
N130       Mn144   2.162       .  S
N131        C133   1.346       .  A
Mn132      Cl145   2.554       .  S
C133        C652   1.446       .  S
C134        C396   1.509       .  S
N135        N136   1.311       .  A
N135        N141   1.315       .  A
N135       Mn143   2.164       .  S
N136        C146   1.347       .  A
N137        N138   1.329       .  A
N137        N139   1.317       .  A
N137       Mn144   2.233       .  S
N138        C147   1.355       .  A
N139        N140   1.338   1_565  A
N139       Mn143   2.293       .  S
N140        C147   1.370   1_545  A
N141        N142   1.316       .  A
N141       Mn144   2.185       .  S
N142        C146   1.354       .  A
Mn143      Cl145   2.560       .  S
Mn144      Cl145   2.552       .  S
C146        C685   1.461       .  S
C147        C192   1.525   1_565  S
C148        C149   1.528       .  S
C148        C154   1.534       .  S
C148        C152   1.520       .  S
C148        C628   1.506       .  S
C149        H156   1.087       .  S
C149        C150   1.357       .  D
C150        C151   1.537       .  S
C150        C637   1.463       .  S
C151        C155   1.525       .  S
C151        C153   1.537       .  S
C151        H157   1.106       .  S
C152        H158   1.087       .  S
C152        C153   1.361       .  D
C153        C613   1.477       .  S
C154        H159   1.081       .  S
C154        C155   1.362       .  D
C155        C604   1.456       .  S
C160        C161   1.536       .  S
C160        C166   1.540       .  S
C160        C164   1.531       .  S
C160        C589   1.522       .  S
C161        H168   1.086       .  S
C161        C162   1.371       .  D
C162        C163   1.527       .  S
C162        C577   1.476       .  S
C163        C167   1.514       .  S
C163        C165   1.518       .  S
C163        H169   1.108       .  S
C164        H170   1.087       .  S
C164        C165   1.358       .  D
C165        C556   1.447       .  S
C166        H171   1.080       .  S
C166        C167   1.359       .  D
C167        C565   1.453       .  S
C172        C173   1.541       .  S
C172        C178   1.535       .  S
C172        C176   1.521       .  S
C172        C520   1.510       .  S
C173        H180   1.086       .  S
C173        C174   1.369       .  D
C174        C175   1.530       .  S
C174        C541   1.473       .  S
C175        C179   1.514       .  S
C175        C177   1.523       .  S
C175        H181   1.111       .  S
C176        H182   1.087       .  S
C176        C177   1.356       .  D
C177        C532   1.457       .  S
C178        H183   1.081       .  S
C178        C179   1.355       .  D
C179        C505   1.442       .  S
N184        N185   1.334       .  A
N184        N190   1.320       .  A
N184       Mn213   2.262       .  S
N185        C192   1.362       .  A
N186        N188   1.317       .  A
N186        N187   1.316   1_545  A
N186       Mn202   2.186       .  S
N187        C193   1.350   1_565  A
N188        N189   1.313       .  A
N188       Mn213   2.171       .  S
N189        C193   1.345       .  A
N190        N191   1.333   1_545  A
N190       Mn202   2.278       .  S
N191        C192   1.364   1_565  A
C193        C580   1.448   1_545  S
N194        N200   1.320       .  A
N194        N195   1.332   1_455  A
N194       Mn224   2.262       .  S
N195        C203   1.360   1_645  A
N196        N197   1.316   1_545  A
N196        N198   1.317       .  A
N196       Mn202   2.179       .  S
N197        C204   1.348   1_565  A
N198        N199   1.315       .  A
N198       Mn224   2.189       .  S
N199        C204   1.350       .  A
N200        N201   1.337   1_545  A
N200       Mn202   2.290       .  S
N201        C203   1.368       .  A
Mn202      Cl226   2.568       .  S
C204        C808   1.458   1_545  S
N205        N206   1.330       .  A
N205        N211   1.319       .  A
N205       Mn213   2.258       .  S
N206        C214   1.360       .  A
N207        N209   1.316       .  A
N207        N208   1.318       .  A
N207       Mn225   2.184       .  S
N208        C215   1.350       .  A
N209        N210   1.311       .  A
N209       Mn213   2.165       .  S
N210        C215   1.346       .  A
N211        N212   1.332       .  A
N211       Mn225   2.253       .  S
N212        C214   1.361       .  A
Mn213      Cl226   2.550       .  S
C214        C351   1.514       .  S
C215        C601   1.459       .  S
N216        N217   1.333   1_455  A
N216        N222   1.319       .  A
N216       Mn224   2.268       .  S
N217        C227   1.363   1_655  A
N218        N219   1.315       .  A
N218        N220   1.317       .  A
N218       Mn225   2.189       .  S
N219        C228   1.349       .  A
N220        N221   1.314   1_455  A
N220       Mn224   2.160       .  S
N221        C228   1.343   1_655  A
N222        N223   1.328       .  A
N222       Mn225   2.238       .  S
N223        C227   1.356       .  A
Mn224      Cl226   2.558       .  S
Mn225      Cl226   2.557       .  S
C228        C529   1.439   1_455  S
N229        N230   1.332       .  A
N229        N235   1.316       .  A
N229       Mn258   2.255       .  S
N230        C237   1.362       .  A
N231        N233   1.315       .  A
N231        N232   1.314       .  A
N231       Mn247   2.178       .  S
N232        C238   1.352       .  A
N233        N234   1.310       .  A
N233       Mn258   2.157       .  S
N234        C238   1.345       .  A
N235        N236   1.331   1_455  A
N235       Mn247   2.246       .  S
N236        C237   1.359   1_655  A
C238        C517   1.450       .  S
N239        N245   1.318       .  A
N239        N240   1.335   1_554  A
N239       Mn269   2.281       .  S
N240        C248   1.365   1_556  A
N241        N242   1.310       .  A
N241        N243   1.318       .  A
N241       Mn247   2.166       .  S
N242        C249   1.345       .  A
N243        N244   1.315       .  A
N243       Mn269   2.189       .  S
N244        C249   1.352       .  A
N245        N246   1.332   1_455  A
N245       Mn247   2.251       .  S
N246        C248   1.360   1_655  A
Mn247      Cl271   2.558       .  S
C249        C832   1.453   1_455  S
N250        N251   1.329       .  A
N250        N256   1.316       .  A
N250       Mn258   2.242       .  S
N251        C259   1.358       .  A
N252        N254   1.315       .  A
N252        N253   1.315       .  A
N252       Mn270   2.185       .  S
N253        C260   1.351       .  A
N254        N255   1.313       .  A
N254       Mn258   2.170       .  S
N255        C260   1.350       .  A
N256        N257   1.335       .  A
N256       Mn270   2.270       .  S
N257        C259   1.366       .  A
Mn258      Cl271   2.552       .  S
C259        C373   1.521       .  S
C260        C553   1.462       .  S
N261        N262   1.337   1_554  A
N261        N267   1.319       .  A
N261       Mn269   2.287       .  S
N262        C272   1.367   1_556  A
N263        N264   1.316       .  A
N263        N265   1.319       .  A
N263       Mn270   2.197       .  S
N264        C273   1.350       .  A
N265        N266   1.312   1_554  A
N265       Mn269   2.160       .  S
N266        C273   1.342   1_556  A
N267        N268   1.331       .  A
N267       Mn270   2.249       .  S
N268        C272   1.357       .  A
Mn269      Cl271   2.565       .  S
Mn270      Cl271   2.556       .  S
C273        C616   1.438   1_554  S
N274        N275   1.309       .  A
N274        N280   1.317       .  A
N274       Mn303   2.167       .  S
N275        C282   1.344       .  A
N276        N278   1.316       .  A
N276        N277   1.335   1_545  A
N276       Mn292   2.267       .  S
N277        C283   1.364   1_565  A
N278        N279   1.333   1_554  A
N278       Mn303   2.260       .  S
N279        C283   1.363   1_556  A
N280        N281   1.321       .  A
N280       Mn292   2.212       .  S
N281        C282   1.357       .  A
C282        C796   1.466   1_554  S
N284        N290   1.317       .  A
N284        N285   1.315       .  A
N284       Mn314   2.183       .  S
N285        C293   1.351       .  A
N286        N287   1.333   1_545  A
N286        N288   1.320       .  A
N286       Mn292   2.267       .  S
N287        C294   1.362   1_565  A
N288        N289   1.332       .  A
N288       Mn314   2.263       .  S
N289        C294   1.360       .  A
N290        N291   1.313       .  A
N290       Mn292   2.175       .  S
N291        C293   1.349       .  A
Mn292      Cl316   2.566       .  S
C293        C568   1.460   1_545  S
N295        N296   1.315       .  A
N295        N301   1.313       .  A
N295       Mn303   2.163       .  S
N296        C304   1.351       .  A
N297        N299   1.317       .  A
N297        N298   1.334       .  A
N297       Mn315   2.260       .  S
N298        C305   1.363       .  A
N299        N300   1.331   1_554  A
N299       Mn303   2.254       .  S
N300        C305   1.360   1_556  A
N301        N302   1.308       .  A
N301       Mn315   2.156       .  S
N302        C304   1.345       .  A
Mn303      Cl316   2.555       .  S
C304        C625   1.447       .  S
N306        N307   1.312       .  A
N306        N312   1.318       .  A
N306       Mn314   2.167       .  S
N307        C317   1.345       .  A
N308        N309   1.329       .  A
N308        N310   1.317       .  A
N308       Mn315   2.233       .  S
N309        C318   1.356       .  A
N310        N311   1.334       .  A
N310       Mn314   2.273       .  S
N311        C318   1.366       .  A
N312        N313   1.313       .  A
N312       Mn315   2.177       .  S
N313        C317   1.349       .  A
Mn314      Cl316   2.557       .  S
Mn315      Cl316   2.547       .  S
C317        C508   1.447       .  S
C318        C386   1.515       .  S
C319        C320   1.531       .  S
C319        C325   1.535       .  S
C319        C323   1.539       .  S
C319        C496   1.524       .  S
C320        H327   1.087       .  S
C320        C321   1.359       .  D
C321        C322   1.520       .  S
C321        C748   1.454       .  S
C322        C326   1.529       .  S
C322        C324   1.522       .  S
C322        H328   1.110       .  S
C323        H329   1.081       .  S
C323        C324   1.364       .  D
C324        C673   1.453       .  S
C325        H330   1.087       .  S
C325        C326   1.365       .  D
C326        C724   1.473       .  S
C331        C332   1.528       .  S
C331        C337   1.518       .  S
C331        C335   1.535       .  S
C331        C649   1.506       .  S
C332        H339   1.082       .  S
C332        C333   1.359       .  D
C333        C334   1.531       .  S
C333        C736   1.459       .  S
C334        C338   1.520       .  S
C334        C336   1.536       .  S
C334        H340   1.110       .  S
C335        H341   1.086       .  S
C335        C336   1.368       .  D
C336        C484   1.478       .  S
C337        H342   1.088       .  S
C337        C338   1.354       .  D
C338        C772   1.444       .  S
N343        N344   1.334       .  A
N343        N349   1.319       .  A
N343       Mn372   2.274       .  S
N344        C351   1.365       .  A
N345        N347   1.316       .  A
N345        N346   1.311       .  A
N345       Mn361   2.180       .  S
N346        C352   1.346       .  A
N347        N348   1.323       .  A
N347       Mn372   2.207       .  S
N348        C352   1.358       .  A
N349        N350   1.328       .  A
N349       Mn361   2.236       .  S
N350        C351   1.356       .  A
C352        C481   1.480       .  S
N353        N359   1.317       .  A
N353        N354   1.328       .  A
N353       Mn383   2.233       .  S
N354        C362   1.357       .  A
N355        N356   1.318       .  A
N355        N357   1.316       .  A
N355       Mn361   2.186       .  S
N356        C363   1.349       .  A
N357        N358   1.315       .  A
N357       Mn383   2.184       .  S
N358        C363   1.349       .  A
N359        N360   1.328       .  A
N359       Mn361   2.241       .  S
N360        C362   1.358       .  A
Mn361      Cl385   2.542       .  S
C362        C418   1.499       .  S
C363        C469   1.457       .  S
N364        N365   1.331       .  A
N364        N370   1.320       .  A
N364       Mn372   2.264       .  S
N365        C373   1.362       .  A
N366        N368   1.319       .  A
N366        N367   1.318       .  A
N366       Mn384   2.182       .  S
N367        C374   1.348       .  A
N368        N369   1.314       .  A
N368       Mn372   2.205       .  S
N369        C374   1.351       .  A
N370        N371   1.334       .  A
N370       Mn384   2.268       .  S
N371        C373   1.362       .  A
Mn372      Cl385   2.572       .  S
C374        C457   1.460       .  S
N375        N376   1.329       .  A
N375        N381   1.318       .  A
N375       Mn383   2.234       .  S
N376        C386   1.356       .  A
N377        N378   1.315       .  A
N377        N379   1.316       .  A
N377       Mn384   2.176       .  S
N378        C387   1.349       .  A
N379        N380   1.318       .  A
N379       Mn383   2.203       .  S
N380        C387   1.354       .  A
N381        N382   1.334       .  A
N381       Mn384   2.277       .  S
N382        C386   1.365       .  A
Mn383      Cl385   2.563       .  S
Mn384      Cl385   2.561       .  S
C387        C493   1.466       .  S
N388        N389   1.330       .  A
N388        N394   1.318       .  A
N388       Mn417   2.250       .  S
N389        C396   1.360       .  A
N390        N392   1.316       .  A
N390        N391   1.314       .  A
N390       Mn406   2.177       .  S
N391        C397   1.349       .  A
N392        N393   1.316       .  A
N392       Mn417   2.189       .  S
N393        C397   1.351       .  A
N394        N395   1.331       .  A
N394       Mn406   2.249       .  S
N395        C396   1.359       .  A
C397        C592   1.460       .  S
N398        N404   1.317       .  A
N398        N399   1.330       .  A
N398       Mn428   2.250       .  S
N399        C407   1.360       .  A
N400        N401   1.316       .  A
N400        N402   1.318       .  A
N400       Mn406   2.190       .  S
N401        C408   1.351       .  A
N402        N403   1.314       .  A
N402       Mn428   2.181       .  S
N403        C408   1.349       .  A
N404        N405   1.330       .  A
N404       Mn406   2.244       .  S
N405        C407   1.359       .  A
Mn406      Cl430   2.562       .  S
C408        C820   1.460       .  S
N409        N410   1.328       .  A
N409        N415   1.318       .  A
N409       Mn417   2.238       .  S
N410        C418   1.356       .  A
N411        N413   1.318       .  A
N411        N412   1.315       .  A
N411       Mn429   2.199       .  S
N412        C419   1.350       .  A
N413        N414   1.318       .  A
N413       Mn417   2.186       .  S
N414        C419   1.351       .  A
N415        N416   1.328       .  A
N415       Mn429   2.242       .  S
N416        C418   1.358       .  A
Mn417      Cl430   2.559       .  S
C419        C640   1.464       .  S
N420        N421   1.333       .  A
N420        N426   1.318       .  A
N420       Mn428   2.266       .  S
N421        C431   1.363       .  A
N422        N423   1.322       .  A
N422        N424   1.316       .  A
N422       Mn429   2.211       .  S
N423        C432   1.357       .  A
N424        N425   1.311       .  A
N424       Mn428   2.168       .  S
N425        C432   1.346       .  A
N426        N427   1.330       .  A
N426       Mn429   2.246       .  S
N427        C431   1.359       .  A
Mn428      Cl430   2.554       .  S
Mn429      Cl430   2.557       .  S
C432        C544   1.473       .  S
C433        C434   1.539       .  S
C433        C439   1.533       .  S
C433        C437   1.546       .  S
C433        C472   1.522       .  S
C434        H441   1.086       .  S
C434        C435   1.364       .  D
C435        C436   1.512       .  S
C435        C688   1.449       .  S
C436        C440   1.516       .  S
C436        C438   1.512       .  S
C436        H442   1.113       .  S
C437        H443   1.083       .  S
C437        C438   1.362       .  D
C438        C697   1.453       .  S
C439        H444   1.086       .  S
C439        C440   1.359       .  D
C440        C784   1.454       .  S
C445        C446   1.528       .  S
C445        C451   1.520       .  S
C445        C449   1.535       .  S
C445        C760   1.508       .  S
C446        H453   1.083       .  S
C446        C447   1.356       .  D
C447        C448   1.532       .  S
C447        C661   1.454       .  S
C448        C452   1.536       .  S
C448        C450   1.530       .  S
C448        H454   1.111       .  S
C449        H455   1.086       .  S
C449        C450   1.362       .  D
C450        C460   1.460       .  S
C451        H456   1.087       .  S
C451        C452   1.357       .  D
C452        C709   1.470       .  S
C457        C458   1.400       .  A
C457        C462   1.410       .  A
C458        C459   1.387       .  A
C458        H463   1.085       .  S
C459        C460   1.404       .  A
C459        C466   1.441       .  S
C460        C461   1.401       .  A
C461        C462   1.398       .  A
C461        H464   1.083       .  S
C462        C465   1.444       .  S
C465        N467   1.157       .  T
C466        N468   1.156       .  T
C469        C470   1.395       .  A
C469        C474   1.404       .  A
C470        C471   1.397       .  A
C470        H475   1.085       .  S
C471        C472   1.423       .  A
C471        C478   1.445       .  S
C472        C473   1.410       .  A
C473        C474   1.390       .  A
C473        H476   1.078       .  S
C474        C477   1.447       .  S
C477        N479   1.157       .  T
C478        N480   1.157       .  T
C481        C482   1.404       .  A
C481        C486   1.418       .  A
C482        C483   1.401       .  A
C482        H487   1.085       .  S
C483        C484   1.413       .  A
C483        C490   1.442       .  S
C484        C485   1.398       .  A
C485        C486   1.390       .  A
C485        H488   1.085       .  S
C486        C489   1.445       .  S
C489        N491   1.157       .  T
C490        N492   1.157       .  T
C493        C494   1.397       .  A
C493        C498   1.408       .  A
C494        C495   1.392       .  A
C494        H499   1.085       .  S
C495        C496   1.421       .  A
C495        C502   1.447       .  S
C496        C497   1.410       .  A
C497        C498   1.396       .  A
C497        H500   1.077       .  S
C498        C501   1.446       .  S
C501        N503   1.158       .  T
C502        N504   1.157       .  T
C505        C506   1.396       .  A
C505        C510   1.402       .  A
C506        C507   1.388       .  A
C506        H511   1.086       .  S
C507        C508   1.409       .  A
C507        C514   1.445       .  S
C508        C509   1.401       .  A
C509        C510   1.385       .  A
C509        H512   1.085       .  S
C510        C513   1.446       .  S
C513        N515   1.157       .  T
C514        N516   1.157       .  T
C517        C518   1.399       .  A
C517        C522   1.400   1_455  A
C518        C519   1.385   1_455  A
C518        H523   1.085       .  S
C519        C520   1.416       .  A
C519        C526   1.446       .  S
C520        C521   1.412       .  A
C521        C522   1.388       .  A
C521        H524   1.076       .  S
C522        C525   1.446       .  S
C525        N527   1.157       .  T
C526        N528   1.157   1_655  T
C529        C530   1.398       .  A
C529        C534   1.400       .  A
C530        C531   1.390       .  A
C530        H535   1.085       .  S
C531        C532   1.407       .  A
C531        C538   1.445       .  S
C532        C533   1.404       .  A
C533        C534   1.387       .  A
C533        H536   1.085       .  S
C534        C537   1.445   1_655  S
C537        N539   1.157       .  T
C538        N540   1.157       .  T
C541        C542   1.407       .  A
C541        C546   1.405       .  A
C542        C543   1.398       .  A
C542        H547   1.084       .  S
C543        C544   1.409       .  A
C543        C550   1.444       .  S
C544        C545   1.407       .  A
C545        C546   1.390       .  A
C545        H548   1.085       .  S
C546        C549   1.443       .  S
C549        N551   1.157       .  T
C550        N552   1.157       .  T
C553        C554   1.404       .  A
C553        C558   1.413       .  A
C554        C555   1.386       .  A
C554        H559   1.084       .  S
C555        C556   1.402       .  A
C555        C562   1.445       .  S
C556        C557   1.395       .  A
C557        C558   1.392       .  A
C557        H560   1.084       .  S
C558        C561   1.444       .  S
C561        N563   1.157       .  T
C562        N564   1.157       .  T
C565        C566   1.397       .  A
C565        C570   1.404       .  A
C566        C567   1.394   1_565  A
C566        H571   1.085       .  S
C567        C568   1.412   1_545  A
C567        C574   1.445       .  S
C568        C569   1.403       .  A
C569        C570   1.386       .  A
C569        H572   1.084       .  S
C570        C573   1.446       .  S
C573        N575   1.157       .  T
C574        N576   1.157       .  T
C577        C578   1.404       .  A
C577        C582   1.420       .  A
C578        C579   1.388       .  A
C578        H583   1.084       .  S
C579        C580   1.407       .  A
C579        C586   1.446       .  S
C580        C581   1.391       .  A
C581        C582   1.392       .  A
C581        H584   1.086       .  S
C582        C585   1.442       .  S
C585        N587   1.157       .  T
C586        N588   1.157   1_565  T
C589        C590   1.412       .  A
C589        C594   1.420       .  A
C590        C591   1.393       .  A
C590        H595   1.075       .  S
C591        C592   1.405       .  A
C591        C598   1.446       .  S
C592        C593   1.395       .  A
C593        C594   1.389       .  A
C593        H596   1.085       .  S
C594        C597   1.444       .  S
C597        N599   1.156       .  T
C598        N600   1.158       .  T
C601        C602   1.401       .  A
C601        C606   1.412       .  A
C602        C603   1.394       .  A
C602        H607   1.085       .  S
C603        C604   1.407       .  A
C603        C610   1.443       .  S
C604        C605   1.395       .  A
C605        C606   1.385       .  A
C605        H608   1.083       .  S
C606        C609   1.446       .  S
C609        N611   1.157       .  T
C610        N612   1.157       .  T
C613        C614   1.413       .  A
C613        C618   1.414       .  A
C614        C615   1.386       .  A
C614        H619   1.084       .  S
C615        C616   1.395       .  A
C615        C622   1.445   1_556  S
C616        C617   1.395       .  A
C617        C618   1.390       .  A
C617        H620   1.086       .  S
C618        C621   1.440       .  S
C621        N623   1.157       .  T
C622        N624   1.157       .  T
C625        C626   1.395       .  A
C625        C630   1.402   1_554  A
C626        C627   1.377   1_554  A
C626        H631   1.085       .  S
C627        C628   1.418       .  A
C627        C634   1.449       .  S
C628        C629   1.411       .  A
C629        C630   1.392       .  A
C629        H632   1.077       .  S
C630        C633   1.446       .  S
C633        N635   1.158       .  T
C634        N636   1.157       .  T
C637        C638   1.399       .  A
C637        C642   1.407       .  A
C638        C639   1.398       .  A
C638        H643   1.083       .  S
C639        C640   1.410       .  A
C639        C646   1.444       .  S
C640        C641   1.402       .  A
C641        C642   1.390       .  A
C641        H644   1.085       .  S
C642        C645   1.445       .  S
C645        N647   1.157       .  T
C646        N648   1.157       .  T
C649        C650   1.411       .  A
C649        C654   1.417       .  A
C650        C651   1.387       .  A
C650        H655   1.078       .  S
C651        C652   1.400       .  A
C651        C658   1.446       .  S
C652        C653   1.397       .  A
C653        C654   1.385       .  A
C653        H656   1.085       .  S
C654        C657   1.447       .  S
C657        N659   1.157       .  T
C658        N660   1.157       .  T
C661        C662   1.399       .  A
C661        C666   1.409       .  A
C662        C663   1.394   1_554  A
C662        H667   1.084   1_554  S
C663        C664   1.407       .  A
C663        C670   1.444       .  S
C664        C665   1.399   1_556  A
C665        C666   1.386       .  A
C665        H668   1.085   1_545  S
C666        C669   1.446       .  S
C669        N671   1.157       .  T
C670        N672   1.157       .  T
C673        C674   1.399       .  A
C673        C678   1.404       .  A
C674        C675   1.396       .  A
C674        H679   1.085       .  S
C675        C676   1.409   1_554  A
C675        C682   1.444       .  S
C676        C677   1.402       .  A
C677        C678   1.384   1_556  A
C677        H680   1.085       .  S
C678        C681   1.446   1_554  S
C681        N683   1.157       .  T
C682        N684   1.157       .  T
C685        C686   1.406   1_565  A
C685        C690   1.410       .  A
C686        C687   1.386       .  A
C686        H691   1.085       .  S
C687        C688   1.401       .  A
C687        C694   1.445       .  S
C688        C689   1.399       .  A
C689        C690   1.392   1_545  A
C689        H692   1.085       .  S
C690        C693   1.445       .  S
C693        N695   1.158       .  T
C694        N696   1.157       .  T
C697        C698   1.401       .  A
C697        C702   1.399       .  A
C698        C699   1.394       .  A
C698        H703   1.082       .  S
C699        C700   1.408       .  A
C699        C706   1.445       .  S
C700        C701   1.407       .  A
C701        C702   1.386       .  A
C701        H704   1.084       .  S
C702        C705   1.445       .  S
C705        N707   1.157       .  T
C706        N708   1.157       .  T
C709        C710   1.402       .  A
C709        C714   1.413       .  A
C710        C711   1.401   1_554  A
C710        H715   1.084   1_554  S
C711        C712   1.415       .  A
C711        C718   1.444       .  S
C712        C713   1.396   1_456  A
C713        C714   1.380   1_655  A
C713        H716   1.085       .  S
C714        C717   1.443   1_455  S
C717        N719   1.156       .  T
C718        N720   1.158       .  T
C721        C722   1.398       .  A
C721        C726   1.409   1_556  A
C722        C723   1.396   1_556  A
C722        H727   1.085       .  S
C723        C724   1.414       .  A
C723        C730   1.442   1_554  S
C724        C725   1.402       .  A
C725        C726   1.389       .  A
C725        H728   1.085       .  S
C726        C729   1.445       .  S
C729        N731   1.157       .  T
C730        N732   1.157       .  T
C733        C734   1.400       .  A
C733        C738   1.398       .  A
C734        C735   1.393       .  A
C734        H739   1.085       .  S
C735        C736   1.406       .  A
C735        C742   1.444       .  S
C736        C737   1.406       .  A
C737        C738   1.383       .  A
C737        H740   1.085       .  S
C738        C741   1.446   1_455  S
C741        N743   1.157       .  T
C742        N744   1.157       .  T
C745        C746   1.406       .  A
C745        C750   1.416       .  A
C746        C747   1.392       .  A
C746        H751   1.084       .  S
C747        C748   1.402       .  A
C747        C754   1.444       .  S
C748        C749   1.396       .  A
C749        C750   1.393       .  A
C749        H752   1.085       .  S
C750        C753   1.444       .  S
C753        N755   1.157       .  T
C754        N756   1.157       .  T
C757        C758   1.394   1_565  A
C757        C762   1.400   1_655  A
C758        C759   1.384   1_655  A
C758        H763   1.086       .  S
C759        C760   1.420       .  A
C759        C766   1.445       .  S
C760        C761   1.412   1_545  A
C761        C762   1.386       .  A
C761        H764   1.077       .  S
C762        C765   1.446       .  S
C765        N767   1.157       .  T
C766        N768   1.157       .  T
C769        C770   1.403       .  A
C769        C774   1.412   1_655  A
C770        C771   1.394   1_655  A
C770        H775   1.085       .  S
C771        C772   1.403       .  A
C771        C778   1.444   1_455  S
C772        C773   1.395       .  A
C773        C774   1.379       .  A
C773        H776   1.086       .  S
C774        C777   1.446       .  S
C777        N779   1.157       .  T
C778        N780   1.157       .  T
C781        C782   1.406       .  A
C781        C786   1.411   1_565  A
C782        C783   1.391   1_565  A
C782        H787   1.075       .  S
C783        C784   1.402       .  A
C783        C790   1.444       .  S
C784        C785   1.399       .  A
C785        C786   1.391       .  A
C785        H788   1.079       .  S
C786        C789   1.445       .  S
C789        N791   1.158       .  T
C790        N792   1.157   1_545  T
C793        C794   1.394       .  A
C793        C798   1.409       .  A
C794        C795   1.385   1_565  A
C794        H799   1.086       .  S
C795        C796   1.417       .  A
C795        C802   1.446       .  S
C796        C797   1.402   1_546  A
C797        C798   1.398   1_554  A
C797        H800   1.085       .  S
C798        C801   1.442   1_556  S
C801        N803   1.157       .  T
C802        N804   1.157       .  T
C805        C806   1.402       .  A
C805        C810   1.410       .  A
C806        C807   1.391   1_655  A
C806        H811   1.085       .  S
C807        C808   1.411       .  A
C807        C814   1.445       .  S
C808        C809   1.398   1_455  A
C809        C810   1.392       .  A
C809        H812   1.085   1_565  S
C810        C813   1.442       .  S
C813        N815   1.157   1_565  T
C814        N816   1.158       .  T
C817        C818   1.411       .  A
C817        C822   1.421       .  A
C818        C819   1.392       .  A
C818        H823   1.084       .  S
C819        C820   1.403       .  A
C819        C826   1.445       .  S
C820        C821   1.398       .  A
C821        C822   1.390       .  A
C821        H824   1.086       .  S
C822        C825   1.447       .  S
C825        N827   1.157       .  T
C826        N828   1.157       .  T
C829        C830   1.398       .  A
C829        C834   1.407       .  A
C830        C831   1.383   1_556  A
C830        H835   1.086       .  S
C831        C832   1.413       .  A
C831        C838   1.446       .  S
C832        C833   1.400   1_654  A
C833        C834   1.391   1_455  A
C833        H836   1.085       .  S
C834        C837   1.443   1_655  S
C837        N839   1.157       .  T
C838        N840   1.158       .  T
