geometry optimzed in LAMMPS
_audit_creation_date              2020-11-30 
_audit_creation_method            'lammps2cif' 
_symmetry_space_group_name_H-M    'P1' 
_symmetry_Int_Tables_number       1 
_symmetry_cell_setting            triclinic 
loop_ 
_symmetry_equiv_pos_as_xyz 
  x,y,z 
_cell_length_a                    37.1206581162827 
_cell_length_b                    37.01835728009753 
_cell_length_c                    24.151521622767337 
_cell_angle_alpha                 90.76211048443352 
_cell_angle_beta                  89.21601522777718 
_cell_angle_gamma                 120.32022726648451 
loop_ 
_atom_site_label 
_atom_site_type_symbol 
_atom_site_fract_x 
_atom_site_fract_y 
_atom_site_fract_z 
_atom_site_charge 
C1          C  0.76413373  0.49352478  0.50198402     0.01480
C2          C  0.72713943  0.49380851  0.00535459     0.01480
C3          C  0.46922373  0.20372681  0.00345699     0.01480
C4          C  0.46750634  0.23996432  0.00009684     0.01480
C5          C  0.73093818  0.20529273  0.49954198     0.01480
C6          C  0.76806394  0.24243112  0.50525154     0.01480
C7          C  0.51076897  0.72238929  0.99282803     0.01480
C8          C  0.51190060  0.76003885  0.99796740     0.01480
C9          C  0.21078564  0.46007135  0.50307404     0.01480
C10         C  0.24750058  0.45908446  0.00376887     0.01480
C11         C  0.24943851  0.75916883  0.50415479     0.01480
C12         C  0.21263159  0.72137932  0.50043448     0.01480
O13         O  0.91997678  0.38148712  0.36924865    -0.74370
O14         O  0.87162591  0.38382571  0.31402281    -0.53280
C15         C  0.88243804  0.36888352  0.35402506     0.79360
O16         O  0.05777030  0.59532112  0.34990010    -0.58970
O17         O  0.10843873  0.58591508  0.31114532    -0.52000
C18         C  0.09646648  0.60704432  0.34102396     0.71370
O19         O  0.91457934  0.51819522  0.35419124    -0.73530
O20         O  0.86850699  0.46025612  0.30528760    -0.54100
C21         C  0.87709872  0.48956951  0.34079166     0.77370
O22         O  0.06073672  0.44870463  0.36540213    -0.58680
O23         O  0.11028658  0.50378541  0.31619376    -0.51790
C24         C  0.09911463  0.47466510  0.35225422     0.73970
Zr25       Zr  0.99030497  0.43263937  0.34049773     2.54710
O26         O  0.99214143  0.44230293  0.44054137    -0.79240
O27         O  0.98575889  0.36497369  0.34838254    -0.92660
Zr28       Zr  0.98729423  0.53759309  0.33053753     2.64680
O29         O  0.98717638  0.53895714  0.43140215    -0.97610
O30         O  0.98373189  0.60133288  0.32560390    -0.79670
O31         O  0.94796031  0.46369759  0.33481975    -0.83030
O32         O  0.02973278  0.50652934  0.33820629    -2.17740
O33         O  0.06240018  0.44123933  0.15148904    -0.66420
O34         O  0.10985403  0.49917968  0.19892239    -0.50990
C35         C  0.10003017  0.46910287  0.16396087     0.72350
O36         O  0.92265302  0.51525089  0.13766572    -0.59330
O37         O  0.87330769  0.46132242  0.18773514    -0.51310
C38         C  0.88435480  0.48999731  0.15099853     0.74150
O39         O  0.06207957  0.58438035  0.13924807    -0.70720
O40         O  0.11027070  0.57940772  0.19147019    -0.49400
C41         C  0.09964478  0.59583533  0.15311391     0.75530
O42         O  0.92235279  0.36843717  0.15321129    -0.66050
O43         O  0.87227521  0.37739895  0.19430886    -0.53250
C44         C  0.88380011  0.35646636  0.16329205     0.73920
Zr45       Zr  0.99218587  0.42516226  0.17653354     2.77540
O46         O  0.99195820  0.42150534  0.07576248    -0.96800
O47         O  0.99310546  0.36039363  0.18706666    -0.77620
Zr48       Zr  0.99181811  0.53193673  0.16694078     2.70070
O49         O  0.99306567  0.52924067  0.06621717    -0.78870
O50         O  0.99457489  0.59906904  0.17049308    -0.97960
Zr51       Zr  0.91044779  0.44048007  0.25002879     2.21500
Zr52       Zr  0.07085442  0.52273471  0.25546295     2.11130
O53         O  0.03249641  0.49918152  0.17137258    -2.46640
O54         O  0.95140744  0.45761395  0.16761733    -0.78660
O55         O  0.03162138  0.44850525  0.25922737    -0.70860
O56         O  0.94932451  0.51483137  0.24720691    -2.31820
O57         O  0.95103867  0.40749174  0.25785670    -2.28020
O58         O  0.03017977  0.55585328  0.24998170    -0.72620
H59         H  0.04728302  0.51715660  0.37047374     0.79380
H60         H  0.93126522  0.52649520  0.24504297     0.80460
H61         H  0.05097884  0.50709682  0.13963024     0.82690
H62         H  0.93339562  0.37746242  0.25987362     0.80300
H63         H  0.96914401  0.59875017  0.29049543     0.43330
H64         H  0.01382405  0.61455918  0.20123694     0.42300
H65         H  0.98060776  0.49913454  0.05709251     0.41980
H66         H  0.01615267  0.44848858  0.06395784     0.39910
H67         H  0.00119087  0.36086201  0.22607713     0.43050
H68         H  0.96148846  0.34542603  0.32569764     0.37830
H69         H  0.97129372  0.45093408  0.44834456     0.43950
H70         H  0.01595232  0.54685483  0.44185373     0.40360
H71         H  0.00018900  0.40046767  0.06682276     0.45280
H72         H  0.97674238  0.35628902  0.38710050     0.44000
H73         H  0.98483493  0.56371924  0.44141606     0.44140
H74         H  0.01022699  0.61388293  0.13673597     0.44500
O75         O  0.45975437  0.37679284  0.14240434    -0.74370
O76         O  0.51172948  0.38239917  0.19782382    -0.53280
C77         C  0.48613121  0.36619752  0.15735101     0.79360
O78         O  0.53315372  0.58751391  0.13562600    -0.58970
O79         O  0.47417563  0.58005437  0.17766059    -0.52000
C80         C  0.50502766  0.59792157  0.14353646     0.71370
O81         O  0.60024142  0.51229163  0.15062385    -0.73530
O82         O  0.58942499  0.45746663  0.20492809    -0.54100
C83         C  0.60963559  0.48503649  0.16748372     0.77370
O84         O  0.38286785  0.43699071  0.14274170    -0.58680
O85         O  0.39381801  0.49884990  0.17775131    -0.51790
C86         C  0.37331771  0.46562754  0.14759800     0.73970
Zr87       Zr  0.43885287  0.42650712  0.17071759     2.54710
O88         O  0.44454726  0.43054190  0.07023877    -0.79240
O89         O  0.37514397  0.35831987  0.17033893    -0.92660
Zr90       Zr  0.54711789  0.53261992  0.16770894     2.64680
O91         O  0.54581861  0.52351122  0.06754382    -0.97610
O92         O  0.61383459  0.59778049  0.16505755    -0.79670
O93         O  0.51224637  0.45854924  0.17307934    -0.83030
O94         O  0.47324122  0.50027943  0.16365014    -2.17740
O95         O  0.38141805  0.45288548  0.35526781    -0.66420
O96         O  0.39315090  0.50963162  0.30465285    -0.50990
C97         C  0.37313227  0.48143499  0.34165818     0.72350
O98         O  0.59484270  0.52241171  0.36394927    -0.59330
O99         O  0.58476076  0.46239759  0.32435357    -0.51310
C100        C  0.60490842  0.49414896  0.35657630     0.74150
O101        O  0.53028854  0.59659696  0.34528517    -0.70720
O102        O  0.47639041  0.58925688  0.29317648    -0.49400
C103        C  0.50580159  0.60927511  0.32839724     0.75530
O104        O  0.44124725  0.37379210  0.36136933    -0.66050
O105        O  0.50084921  0.38139717  0.32343994    -0.53250
C106        C  0.46782659  0.36152393  0.35393726     0.73920
Zr107      Zr  0.43409619  0.43334215  0.33482543     2.77540
O108        O  0.44662417  0.44796440  0.43354726    -0.96800
O109        O  0.36561062  0.37190483  0.34949478    -0.77620
Zr110      Zr  0.54295343  0.53876924  0.33097157     2.70070
O111        O  0.54114221  0.54646627  0.43110664    -0.78870
O112        O  0.61259129  0.59913022  0.32093033    -0.97960
Zr113      Zr  0.52794483  0.44051210  0.26008643     2.21500
Zr114      Zr  0.45158660  0.52373787  0.24296646     2.11130
O115        O  0.46922864  0.50730009  0.32995857    -2.46640
O116        O  0.50773696  0.46483532  0.33958386    -0.78660
O117        O  0.41585248  0.44946735  0.24857078    -0.70860
O118        O  0.56437062  0.51489919  0.25345587    -2.31820
O119        O  0.45394201  0.40752550  0.25650275    -2.28020
O120        O  0.52583705  0.55696472  0.24564640    -0.72620
H121        H  0.46512830  0.50784162  0.12985267     0.79380
H122        H  0.59417408  0.52634687  0.25509864     0.80460
H123        H  0.46041032  0.51849591  0.36015048     0.82690
H124        H  0.44097591  0.37742800  0.25726241     0.80300
H125        H  0.62811021  0.59759543  0.19927402     0.43330
H126        H  0.60925660  0.61744575  0.29455434     0.42300
H127        H  0.51286216  0.54164046  0.43943874     0.41980
H128        H  0.42850655  0.45926337  0.44505560     0.39910
H129        H  0.35421650  0.36297344  0.31175422     0.43050
H130        H  0.38224239  0.33950350  0.19011103     0.37830
H131        H  0.47380556  0.43840369  0.06201708     0.43950
H132        H  0.52209288  0.52637374  0.05504683     0.40360
H133        H  0.43376890  0.42010851  0.45101961     0.45280
H134        H  0.37182347  0.34886150  0.13123483     0.44000
H135        H  0.57091871  0.54908694  0.05401681     0.44140
H136        H  0.61815467  0.61373524  0.35710468     0.44500
O137        O  0.59296189  0.05255898  0.13566029    -0.74370
O138        O  0.58731641  0.10190769  0.18696160    -0.53280
C139        C  0.60390840  0.09051191  0.14875241     0.79360
O140        O  0.37934493  0.91291279  0.15053407    -0.58970
O141        O  0.38654739  0.86257808  0.19258191    -0.52000
C142        C  0.36634966  0.87428383  0.16146060     0.71370
O143        O  0.45497590  0.05456298  0.14669540    -0.73530
O144        O  0.50983399  0.10377720  0.19636402    -0.54100
C145        C  0.48078490  0.09300345  0.16031090     0.77370
O146        O  0.52954052  0.91196325  0.14309391    -0.58680
O147        O  0.47347766  0.86233062  0.19045357    -0.51790
C148        C  0.50425781  0.87352774  0.15616979     0.73970
Zr149      Zr  0.54208785  0.98193668  0.16527797     2.54710
O150        O  0.53594115  0.97705718  0.06487826    -0.79240
O151        O  0.61074082  0.98847018  0.16438387    -0.92660
Zr152      Zr  0.43651178  0.98313984  0.17197435     2.64680
O153        O  0.43534876  0.98467758  0.07139084    -0.97610
O154        O  0.37115472  0.98254685  0.18421542    -0.79670
O155        O  0.51016331  0.02355811  0.16832251    -0.83030
O156        O  0.46811132  0.94099400  0.16610434    -2.17740
O157        O  0.52969614  0.91174120  0.35428018    -0.66420
O158        O  0.47021507  0.86258899  0.31098661    -0.50990
C159        C  0.50104708  0.87372143  0.34431338     0.72350
O160        O  0.45395555  0.05184223  0.36347775    -0.59330
O161        O  0.51128487  0.10107366  0.31644848    -0.51310
C162        C  0.48149758  0.08984044  0.35211772     0.74150
O163        O  0.38263518  0.91294110  0.35840189    -0.70720
O164        O  0.38901796  0.86283492  0.31020787    -0.49400
C165        C  0.37103073  0.87477347  0.34600553     0.75530
O166        O  0.60097470  0.05213604  0.35174365    -0.66050
O167        O  0.59489871  0.10224984  0.30726825    -0.53250
C168        C  0.61430021  0.09073308  0.34013411     0.73920
Zr169      Zr  0.54499608  0.98169321  0.32851804     2.77540
O170        O  0.54661460  0.98367410  0.42931148    -0.96800
O171        O  0.60901618  0.97922551  0.31803664    -0.77620
Zr172      Zr  0.43888428  0.98250076  0.33507465     2.70070
O173        O  0.44595265  0.98290911  0.43508872    -0.78870
O174        O  0.37400956  0.98386254  0.34069163    -0.97960
Zr175      Zr  0.53150544  0.06353358  0.25210803     2.21500
Zr176      Zr  0.44924447  0.90047913  0.24908251     2.11130
O177        O  0.47099212  0.94097147  0.33272481    -2.46640
O178        O  0.51286648  0.02323415  0.33465460    -0.78660
O179        O  0.52337493  0.94094499  0.24634450    -0.70860
O180        O  0.45732736  0.02360242  0.25422471    -2.31820
O181        O  0.56464081  0.02265428  0.24740781    -2.28020
O182        O  0.41691706  0.94202107  0.25287456    -0.72620
H183        H  0.45847835  0.92303468  0.13376349     0.79380
H184        H  0.44533912  0.04146565  0.25568879     0.80460
H185        H  0.46225971  0.92311131  0.36481718     0.82690
H186        H  0.59459072  0.04049797  0.24585487     0.80300
H187        H  0.37246222  0.99376077  0.22201835     0.43330
H188        H  0.35396825  0.95992271  0.31767280     0.42300
H189        H  0.47596248  0.00243559  0.44199775     0.41980
H190        H  0.51959559  0.95942653  0.44092086     0.39910
H191        H  0.60390911  0.96034037  0.28596658     0.43050
H192        H  0.62688294  0.00939896  0.19340459     0.37830
H193        H  0.53103819  0.00000826  0.05452494     0.43950
H194        H  0.44896290  0.96880049  0.05916811     0.40360
H195        H  0.56762640  0.97587640  0.43898939     0.45280
H196        H  0.62387547  0.00260967  0.12910374     0.44000
H197        H  0.40561853  0.96657655  0.06157069     0.44140
H198        H  0.36396265  0.97564761  0.37921005     0.44500
C199        C  0.27760900  0.78277415  0.45508169    -0.04420
C200        C  0.26485500  0.79426913  0.40565977    -0.01530
C201        C  0.29540170  0.81988457  0.36556351     0.03450
C202        C  0.33763594  0.84266696  0.38093986    -0.04420
C203        C  0.34825750  0.83756268  0.43405313    -0.01520
C204        C  0.32131036  0.80194924  0.46345777     0.03450
C205        C  0.22275028  0.78568513  0.39774122     0.38100
C206        C  0.37835518  0.87371582  0.46506763     0.38090
C207        C  0.33985990  0.78838853  0.50444904     0.36520
C208        C  0.28329285  0.82665749  0.31163626     0.36520
N209        N  0.35628648  0.77906919  0.03686586    -0.38300
N210        N  0.27375410  0.83200154  0.26843607    -0.38310
N211        N  0.40021264  0.90291489  0.49125953    -0.37750
N212        N  0.18995287  0.78079107  0.38934568    -0.37750
C213        C  0.26588503  0.78238171  0.05875408    -0.04420
C214        C  0.27360170  0.82385166  0.06182747    -0.01530
C215        C  0.30373863  0.85330943  0.09830805     0.03450
C216        C  0.32625339  0.84148717  0.13396215    -0.04420
C217        C  0.31087956  0.79788695  0.13996160    -0.01520
C218        C  0.28207013  0.76862488  0.10133792     0.03450
C219        C  0.25153543  0.83687021  0.02521489     0.38100
C220        C  0.32454040  0.78255430  0.18537076     0.38090
C221        C  0.27453687  0.72621094  0.10161205     0.36520
C222        C  0.31095388  0.89566812  0.09769643     0.36520
N223        N  0.26991626  0.69289397  0.10315202    -0.38300
N224        N  0.31592674  0.92911819  0.09605444    -0.38310
N225        N  0.33474563  0.77004667  0.22204288    -0.37750
N226        N  0.23398909  0.84764950  0.99672025    -0.37750
C227        C  0.12912659  0.64619860  0.37028309    -0.04420
C228        C  0.17253675  0.66136600  0.36284153    -0.01530
C229        C  0.20160173  0.68812226  0.40304400     0.03450
C230        C  0.18811767  0.70360727  0.44779641    -0.04420
C231        C  0.14689672  0.69641944  0.44686322    -0.01520
C232        C  0.11742085  0.66748642  0.40943072     0.03450
C233        C  0.18783976  0.65135690  0.31277512     0.38100
C234        C  0.13467515  0.71988406  0.48348241     0.38090
C235        C  0.07532421  0.66070036  0.41195936     0.36520
C236        C  0.24465139  0.69809362  0.39890035     0.36520
N237        N  0.04206072  0.65595968  0.41482034    -0.38300
N238        N  0.27889882  0.70568540  0.39515007    -0.38310
N239        N  0.12366601  0.73853085  0.51063179    -0.37750
N240        N  0.20021039  0.64388140  0.27254843    -0.37750
C241        C  0.13306120  0.62951988  0.12036216    -0.04420
C242        C  0.15081645  0.61913301  0.07585306    -0.01530
C243        C  0.18258584  0.65087746  0.04405658     0.03450
C244        C  0.19141688  0.69287799  0.04916008    -0.04420
C245        C  0.17298516  0.70318518  0.09423607    -0.01520
C246        C  0.14526829  0.67161146  0.13096284     0.03450
C247        C  0.13380226  0.57565579  0.05937597     0.38100
C248        C  0.17987702  0.74499670  0.10240852     0.38090
C249        C  0.12731512  0.68193159  0.17806971     0.36520
C250        C  0.20667375  0.63975674  0.00716817     0.36520
N251        N  0.11296732  0.69000440  0.21570730    -0.38300
N252        N  0.22575969  0.62950285  0.47967722    -0.38310
N253        N  0.18391198  0.77768159  0.11087951    -0.37750
N254        N  0.11967640  0.54115263  0.04525558    -0.37750
C255        C  0.27579371  0.47055780  0.45255281    -0.04420
C256        C  0.31727851  0.50494139  0.45699300    -0.01530
C257        C  0.34855004  0.51029145  0.41830625     0.03450
C258        C  0.33886825  0.48218752  0.37361997    -0.04420
C259        C  0.29714042  0.45065038  0.36540241    -0.01520
C260        C  0.26571235  0.44443576  0.40459098     0.03450
C261        C  0.32827504  0.53387451  0.50328800     0.38100
C262        C  0.28706364  0.42317263  0.31747699     0.38090
C263        C  0.22478336  0.40821123  0.39681546     0.36520
C264        C  0.39161252  0.54275482  0.42652821     0.36520
N265        N  0.19368270  0.37799246  0.38693375    -0.38300
N266        N  0.42633670  0.56797399  0.43219184    -0.38310
N267        N  0.27918583  0.40142423  0.27916937    -0.37750
N268        N  0.33649794  0.55652093  0.04063718    -0.37750
C269        C  0.33561801  0.45906770  0.11647071    -0.04420
C270        C  0.31232018  0.47739984  0.13546080    -0.01530
C271        C  0.27708484  0.47170208  0.10580835     0.03450
C272        C  0.26541112  0.44879834  0.05456650    -0.04420
C273        C  0.28343606  0.42366694  0.04353276    -0.01520
C274        C  0.32017352  0.43135621  0.07027272     0.03450
C275        C  0.32313126  0.50089103  0.18744357     0.38100
C276        C  0.26368563  0.38888642  0.00477115     0.38090
C277        C  0.34276295  0.41214824  0.04685098     0.36520
C278        C  0.24983165  0.48154571  0.13715830     0.36520
N279        N  0.36022128  0.39665861  0.02697312    -0.38300
N280        N  0.23054745  0.48865570  0.16892382    -0.38310
N281        N  0.24839881  0.36025317  0.47520506    -0.37750
N282        N  0.33119572  0.51952269  0.22870795    -0.37750
C283        C  0.13227192  0.47003679  0.38116053    -0.04420
C284        C  0.17240055  0.50466990  0.39251747    -0.01530
C285        C  0.20156191  0.49958761  0.42382552     0.03450
C286        C  0.18915077  0.46140642  0.45109180    -0.04420
C287        C  0.14990075  0.42631963  0.43685359    -0.01520
C288        C  0.12348640  0.43017458  0.39894930     0.03450
C289        C  0.18358145  0.54623982  0.37483212     0.38100
C290        C  0.13588325  0.38530631  0.45979019     0.38090
C291        C  0.08812194  0.39250035  0.37664864     0.36520
C292        C  0.24424469  0.53380720  0.42668601     0.36520
N293        N  0.06078744  0.36199818  0.35852028    -0.38300
N294        N  0.27817164  0.56170628  0.42654600    -0.38310
N295        N  0.12294534  0.35136013  0.47482344    -0.37750
N296        N  0.19306817  0.57978029  0.36153180    -0.37750
C297        C  0.13413252  0.46726577  0.13302618    -0.04420
C298        C  0.16888378  0.50432347  0.11289747    -0.01530
C299        C  0.19459842  0.50207633  0.07114530     0.03450
C300        C  0.18903909  0.46278157  0.05416584    -0.04420
C301        C  0.16037957  0.42671491  0.08363051    -0.01520
C302        C  0.13127784  0.42840217  0.12031595     0.03450
C303        C  0.18049643  0.54466420  0.13775826     0.38100
C304        C  0.16373652  0.38941068  0.08079732     0.38090
C305        C  0.09973475  0.39035362  0.14680105     0.36520
C306        C  0.23097833  0.54056671  0.05319779     0.36520
N307        N  0.07471836  0.35979453  0.16772456    -0.38300
N308        N  0.26022813  0.57223904  0.04225434    -0.38310
N309        N  0.16690109  0.35985970  0.07983833    -0.37750
N310        N  0.19076042  0.57683769  0.15824709    -0.37750
C311        C  0.51380713  0.70492444  0.43737091    -0.04420
C312        C  0.48014513  0.68642386  0.39948458    -0.01530
C313        C  0.47788837  0.65671987  0.36003436     0.03450
C314        C  0.51121303  0.64859167  0.35470211    -0.04420
C315        C  0.54886849  0.67579451  0.38211546    -0.01520
C316        C  0.54911917  0.70086615  0.42632719     0.03450
C317        C  0.44640723  0.69532938  0.40200205     0.38100
C318        C  0.58801640  0.67971501  0.36364011     0.38090
C319        C  0.58636231  0.72246099  0.45993709     0.36520
C320        C  0.44047988  0.63371080  0.32702215     0.36520
N321        N  0.61707441  0.73945979  0.48475014    -0.38300
N322        N  0.41051949  0.61544995  0.30092197    -0.38310
N323        N  0.62012156  0.68496652  0.34911383    -0.37750
N324        N  0.41837898  0.70083402  0.40145723    -0.37750
C325        C  0.50673151  0.69434015  0.04081180    -0.04420
C326        C  0.53912994  0.70486546  0.07962763    -0.01530
C327        C  0.53878496  0.67347532  0.11327407     0.03450
C328        C  0.50631374  0.63148728  0.10874519    -0.04420
C329        C  0.47290134  0.62143543  0.07295894    -0.01520
C330        C  0.47246297  0.65262301  0.04070495     0.03450
C331        C  0.57342797  0.74734015  0.08531376     0.38100
C332        C  0.43952753  0.57823654  0.06747567     0.38090
C333        C  0.43506557  0.64174966  0.00991462     0.36520
C334        C  0.57179455  0.68431234  0.15291892     0.36520
N335        N  0.40418739  0.63228651  0.98742357    -0.38300
N336        N  0.59801905  0.69285488  0.18468691    -0.38310
N337        N  0.41335223  0.54368494  0.06271757    -0.37750
N338        N  0.60175901  0.78059082  0.09185726    -0.37750
C339        C  0.50213364  0.84060575  0.37719435    -0.04420
C340        C  0.47595108  0.82459434  0.42355860    -0.01530
C341        C  0.47395004  0.79160869  0.45339319     0.03450
C342        C  0.50636521  0.78225346  0.44900796    -0.04420
C343        C  0.53544455  0.80073043  0.40428130    -0.01520
C344        C  0.53129000  0.82759138  0.36645743     0.03450
C345        C  0.46074635  0.84924641  0.45030970     0.38100
C346        C  0.57123017  0.79541166  0.39785613     0.38090
C347        C  0.55894874  0.84437366  0.31886764     0.36520
C348        C  0.43747564  0.76674327  0.48753795     0.36520
N349        N  0.58091142  0.85777867  0.28079612    -0.38300
N350        N  0.40741250  0.74559855  0.01259451    -0.38310
N351        N  0.60109163  0.79355237  0.39022654    -0.37750
N352        N  0.45264970  0.87091321  0.47543399    -0.37750
C353        C  0.51618772  0.78252228  0.05274497    -0.04420
C354        C  0.54974162  0.82406541  0.05807046    -0.01530
C355        C  0.54799442  0.85206898  0.09672359     0.03450
C356        C  0.51095544  0.84041459  0.12783442    -0.04420
C357        C  0.48032138  0.79710940  0.12891597    -0.01520
C358        C  0.48362125  0.76820528  0.09286726     0.03450
C359        C  0.58661302  0.83869674  0.02314983     0.38100
C360        C  0.44466193  0.78160655  0.16615848     0.38090
C361        C  0.45152928  0.72453004  0.09586049     0.36520
C362        C  0.58546352  0.89237865  0.10472783     0.36520
N363        N  0.42464343  0.69036618  0.10117459    -0.38300
N364        N  0.61634001  0.92379422  0.11014752    -0.38310
N365        N  0.41618799  0.76877045  0.19586696    -0.37750
N366        N  0.61678778  0.85133037  0.99675997    -0.37750
C367        C  0.79135554  0.25773315  0.05946518    -0.04420
C368        C  0.83255734  0.26493745  0.06052618    -0.01530
C369        C  0.86214941  0.29432800  0.09751571     0.03450
C370        C  0.85081706  0.31685984  0.13511873    -0.04420
C371        C  0.80747187  0.30192536  0.14276257    -0.01520
C372        C  0.77793881  0.27323156  0.10444640     0.03450
C373        C  0.84499414  0.24219723  0.02286492     0.38100
C374        C  0.79261760  0.31534384  0.19018188     0.38090
C375        C  0.73500675  0.26349984  0.10952837     0.36520
C376        C  0.90408740  0.30067739  0.09579388     0.36520
N377        N  0.70134627  0.25725753  0.11545871    -0.38300
N378        N  0.93727935  0.30517904  0.09372939    -0.38310
N379        N  0.78042295  0.32531775  0.22835507    -0.37750
N380        N  0.85587331  0.22410432  0.49436772    -0.37750
C381        C  0.79078912  0.27222459  0.45820770    -0.04420
C382        C  0.80720759  0.26166111  0.41103158    -0.01530
C383        C  0.83448708  0.29325835  0.37406455     0.03450
C384        C  0.84922519  0.33553554  0.38709362    -0.04420
C385        C  0.83447221  0.34638572  0.43435781    -0.01520
C386        C  0.80265687  0.31499620  0.46644217     0.03450
C387        C  0.79955748  0.21972735  0.40138331     0.38100
C388        C  0.85366583  0.38997245  0.45180409     0.38090
C389        C  0.78310145  0.32777491  0.50852496     0.36520
C390        C  0.84951747  0.28266116  0.32412512     0.36520
N391        N  0.76877502  0.33970892  0.04174392    -0.38300
N392        N  0.86147099  0.27438492  0.28417153    -0.38310
N393        N  0.86925516  0.42457058  0.46610823    -0.37750
N394        N  0.79520239  0.18708721  0.39150517    -0.37750
C395        C  0.65380336  0.12354456  0.36880765    -0.04420
C396        C  0.66914765  0.16723164  0.36358502    -0.01530
C397        C  0.69755451  0.19612218  0.40297796     0.03450
C398        C  0.71355478  0.18206622  0.44531734    -0.04420
C399        C  0.70590795  0.14061991  0.44144001    -0.01520
C400        C  0.67598377  0.11145425  0.40456198     0.03450
C401        C  0.65628576  0.18298125  0.31776205     0.38100
C402        C  0.72948184  0.12763109  0.47504671     0.38090
C403        C  0.66899140  0.06913077  0.40435043     0.36520
C404        C  0.70845632  0.23956589  0.40048515     0.36520
N405        N  0.66408564  0.03568887  0.40535579    -0.38300
N406        N  0.71645250  0.27402400  0.39747506    -0.38310
N407        N  0.74819297  0.11608210  0.99974989    -0.37750
N408        N  0.64650252  0.19573813  0.28091601    -0.37750
C409        C  0.70219288  0.18303482  0.04756860    -0.04420
C410        C  0.66107255  0.17625561  0.04489177    -0.01530
C411        C  0.62873443  0.14482180  0.07634606     0.03450
C412        C  0.63795591  0.12370767  0.11642039    -0.04420
C413        C  0.67949391  0.13396461  0.12500320    -0.01520
C414        C  0.71157509  0.16264427  0.08967843     0.03450
C415        C  0.65210954  0.20301030  0.01172309     0.38100
C416        C  0.68890689  0.11417434  0.16960804     0.38090
C417        C  0.75315315  0.16932497  0.09672432     0.36520
C418        C  0.58566963  0.13217224  0.06450538     0.36520
N419        N  0.78565482  0.17324390  0.10435211    -0.38300
N420        N  0.55140821  0.12151180  0.05384589    -0.38310
N421        N  0.69635900  0.09857250  0.20542112    -0.37750
N422        N  0.64453164  0.22483945  0.48698507    -0.37750
C423        C  0.45639559  0.25575465  0.44808749    -0.04420
C424        C  0.48106419  0.26932737  0.39862925    -0.01530
C425        C  0.48183356  0.30119742  0.36561050     0.03450
C426        C  0.45998002  0.32184120  0.38243635    -0.04420
C427        C  0.43044696  0.30351472  0.42635428    -0.01520
C428        C  0.42692658  0.26906606  0.45577534     0.03450
C429        C  0.50671811  0.25254726  0.37947817     0.38100
C430        C  0.40444135  0.32050964  0.44411469     0.38090
C431        C  0.39329207  0.24801010  0.99584595     0.36520
C432        C  0.50588204  0.31269148  0.31420126     0.36520
N433        N  0.36573905  0.23146267  0.02680847    -0.38300
N434        N  0.52517949  0.32151345  0.27348052    -0.38310
N435        N  0.38350321  0.33360317  0.45919042    -0.37750
N436        N  0.52749028  0.24131315  0.35815981    -0.37750
C437        C  0.47816740  0.26966623  0.04892464    -0.04420
C438        C  0.45420780  0.25928505  0.09890526    -0.01530
C439        C  0.46068708  0.29102204  0.13746174     0.03450
C440        C  0.48704555  0.33325404  0.12380683    -0.04420
C441        C  0.51013195  0.34387692  0.07412975    -0.01520
C442        C  0.50880368  0.31229394  0.03993004     0.03450
C443        C  0.41970061  0.21773196  0.10971376     0.38100
C444        C  0.53317742  0.38719068  0.05624504     0.38090
C445        C  0.53802479  0.32419464  0.99388750     0.36520
C446        C  0.43741962  0.28059103  0.18936514     0.36520
N447        N  0.56128420  0.33396194  0.45708065    -0.38300
N448        N  0.41897946  0.27243140  0.23075327    -0.38490
N449        N  0.55115933  0.42158465  0.04155583    -0.37750
N450        N  0.39098595  0.18603488  0.12196209    -0.37750
C451        C  0.47926661  0.12305478  0.38392282    -0.04420
C452        C  0.51468896  0.15334708  0.41255006    -0.01530
C453        C  0.51211745  0.18300186  0.44637824     0.03450
C454        C  0.47368033  0.18172525  0.45395895    -0.04420
C455        C  0.43945743  0.15455652  0.42054849    -0.01520
C456        C  0.44189241  0.12447566  0.38660556     0.03450
C457        C  0.55348049  0.15296136  0.40960058     0.38100
C458        C  0.40268384  0.15863146  0.91902146     0.38090
C459        C  0.40591401  0.09492501  0.35472080     0.36520
C460        C  0.55033190  0.21872063  0.46635497     0.36520
N461        N  0.37709835  0.07124951  0.32953415    -0.38300
N462        N  0.58125392  0.24829415  0.47877606    -0.38310
N463        N  0.37333714  0.16191799  0.91684754    -0.37750
N464        N  0.58434708  0.15247672  0.40780456    -0.37750
C465        C  0.47616414  0.12648141  0.13125939    -0.04420
C466        C  0.50982341  0.16819751  0.12429800    -0.01530
C467        C  0.50560475  0.19650898  0.08935795     0.03450
C468        C  0.46932974  0.18249144  0.05683874    -0.04420
C469        C  0.43460548  0.14249139  0.06855509    -0.01520
C470        C  0.43732033  0.11613762  0.10780217     0.03450
C471        C  0.54946570  0.18216145  0.15119874     0.38100
C472        C  0.39473458  0.12827608  0.04210706     0.38090
C473        C  0.39909071  0.07918009  0.12549664     0.36520
C474        C  0.53856157  0.23992743  0.08790167     0.36520
N475        N  0.36782959  0.05052720  0.13922809    -0.38300
N476        N  0.56509936  0.27458138  0.08832479    -0.38310
N477        N  0.36178289  0.11565019  0.02393882    -0.37750
N478        N  0.58129766  0.19351374  0.17222520    -0.37750
C479        C  0.70521345  0.49909552  0.45601255    -0.04420
C480        C  0.69686165  0.53248681  0.45768457    -0.01530
C481        C  0.66380454  0.53063792  0.42719498     0.03450
C482        C  0.64204561  0.49826580  0.38749496    -0.04420
C483        C  0.65664859  0.46986156  0.37752991    -0.01520
C484        C  0.68567115  0.46844660  0.41361962     0.03450
C485        C  0.72313761  0.57026977  0.98925756     0.38100
C486        C  0.64227120  0.44157849  0.32997401     0.38090
C487        C  0.69245384  0.43354581  0.40637256     0.36520
C488        C  0.65254594  0.56234209  0.43867932     0.36520
N489        N  0.69395047  0.40381208  0.39542277    -0.38300
N490        N  0.64394016  0.58771302  0.44892417    -0.38310
N491        N  0.63126826  0.41911527  0.29213496    -0.37750
N492        N  0.74362019  0.60184424  0.01186402    -0.37750
C493        C  0.64536511  0.48448493  0.13941994    -0.04420
C494        C  0.63921587  0.44787490  0.11267198    -0.01530
C495        C  0.66537051  0.45092428  0.06809417     0.03450
C496        C  0.70392810  0.48835863  0.05942011    -0.04420
C497        C  0.71526439  0.52170637  0.09780016    -0.01520
C498        C  0.68467498  0.52113485  0.13414581     0.03450
C499        C  0.60838513  0.40714261  0.13338691     0.38100
C500        C  0.75743830  0.55678341  0.10032191     0.38090
C501        C  0.69402302  0.55766146  0.16747690     0.36520
C502        C  0.65252142  0.41487842  0.03226500     0.36520
N503        N  0.70153120  0.58678775  0.19418107    -0.38300
N504        N  0.64220775  0.38518387  0.00547722    -0.38310
N505        N  0.79056708  0.58558599  0.10492674    -0.37750
N506        N  0.58540635  0.37452178  0.15138452    -0.37750
C507        C  0.85106759  0.49443553  0.12143118    -0.04420
C508        C  0.80809824  0.46370629  0.12621253    -0.01530
C509        C  0.77827997  0.46391644  0.09036814     0.03450
C510        C  0.79010895  0.49685070  0.05193691    -0.04420
C511        C  0.83139879  0.53130086  0.05497180    -0.01520
C512        C  0.86176740  0.52970035  0.08765858     0.03450
C513        C  0.79357068  0.43148895  0.16826486     0.38100
C514        C  0.84331152  0.56979595  0.52573620     0.38090
C515        C  0.90393857  0.56545402  0.08592153     0.36520
C516        C  0.73628689  0.42859566  0.09359844     0.36520
N517        N  0.93716748  0.59437979  0.08309901    -0.38300
N518        N  0.70442012  0.39848121  0.10055843    -0.38310
N519        N  0.85472533  0.60189023  0.50516165    -0.37750
N520        N  0.78141864  0.40610739  0.20216345    -0.37750
C521        C  0.78316073  0.48983629  0.44797407    -0.04420
C522        C  0.78418031  0.45270748  0.43698761    -0.01530
C523        C  0.80933196  0.45127102  0.39392653     0.03450
C524        C  0.84110945  0.48884870  0.37056610    -0.04420
C525        C  0.83838183  0.52531596  0.37798921    -0.01520
C526        C  0.80692887  0.52454378  0.41290761     0.03450
C527        C  0.75772914  0.41492640  0.46779463     0.38100
C528        C  0.86666821  0.56298363  0.34798079     0.38090
C529        C  0.79934078  0.55919367  0.41182791     0.36520
C530        C  0.80043539  0.41100099  0.37188978     0.36520
N531        N  0.79412863  0.58740247  0.40903161    -0.38300
N532        N  0.79170307  0.37867218  0.35320668    -0.38310
N533        N  0.88916153  0.59309423  0.32400415    -0.37750
N534        N  0.73527576  0.38376317  0.48960281    -0.37750
C535        C  0.76413524  0.49352885  0.00199458     0.01480
C536        C  0.72713939  0.49380735  0.50534536     0.01480
C537        C  0.46922188  0.20372597  0.50345344     0.01480
C538        C  0.46750393  0.23996318  0.50009337     0.01480
C539        C  0.73093906  0.20529028  0.99954008     0.01480
C540        C  0.76806508  0.24242831  0.00525073     0.01480
C541        C  0.51076929  0.72238918  0.49283075     0.01480
C542        C  0.51190176  0.76003912  0.49797108     0.01480
C543        C  0.21078525  0.46007005  0.00306421     0.01480
C544        C  0.24750114  0.45908608  0.50377830     0.01480
C545        C  0.24943951  0.75916872  0.00415618     0.01480
C546        C  0.21263261  0.72137918  0.00043624     0.01480
O547        O  0.91997691  0.38148850  0.86924927    -0.74370
O548        O  0.87162485  0.38382641  0.81402512    -0.53280
C549        C  0.88243788  0.36888409  0.85402628     0.79360
O550        O  0.05776810  0.59532416  0.84990283    -0.58970
O551        O  0.10843625  0.58591830  0.81114675    -0.52000
C552        C  0.09646423  0.60704727  0.84102625     0.71370
O553        O  0.91457742  0.51819687  0.85419561    -0.73530
O554        O  0.86850453  0.46025677  0.80529399    -0.54100
C555        C  0.87709671  0.48957054  0.84079769     0.77370
O556        O  0.06073713  0.44870820  0.86539923    -0.58680
O557        O  0.11028607  0.50379044  0.81619200    -0.51790
C558        C  0.09911482  0.47466925  0.85225086     0.73970
Zr559      Zr  0.99030451  0.43264290  0.84049910     2.54710
O560        O  0.99214199  0.44230829  0.94054246    -0.79240
O561        O  0.98576029  0.36497821  0.84838678    -0.92660
Zr562      Zr  0.98729206  0.53759576  0.83054004     2.64680
O563        O  0.98717464  0.53895906  0.93140467    -0.97610
O564        O  0.98372945  0.60133549  0.82560863    -0.79670
O565        O  0.94795889  0.46370015  0.83482228    -0.83030
O566        O  0.02973140  0.50653286  0.83820781    -2.17740
O567        O  0.06239934  0.44124259  0.65149291    -0.66420
O568        O  0.10985247  0.49918423  0.69892486    -0.50990
C569        C  0.10002916  0.46910675  0.66396482     0.72350
O570        O  0.92264863  0.51524877  0.63766438    -0.59330
O571        O  0.87330378  0.46132338  0.68773884    -0.51310
C572        C  0.88435054  0.48999585  0.65099864     0.74150
O573        O  0.06207498  0.58438319  0.63924821    -0.70720
O574        O  0.11026683  0.57941149  0.69146989    -0.49400
C575        C  0.09964037  0.59583853  0.65311346     0.75530
O576        O  0.92235145  0.36844052  0.65321328    -0.66050
O577        O  0.87227329  0.37740132  0.69431110    -0.53250
C578        C  0.88379867  0.35646927  0.66329394     0.73920
Zr579      Zr  0.99218444  0.42516596  0.67653480     2.77540
O580        O  0.99195762  0.42151151  0.57576359    -0.96800
O581        O  0.99310428  0.36039718  0.68706438    -0.77620
Zr582      Zr  0.99181431  0.53193930  0.66694329     2.70070
O583        O  0.99306251  0.52924762  0.56621946    -0.78870
O584        O  0.99456869  0.59907037  0.67050157    -0.97960
Zr585      Zr  0.91044530  0.44048205  0.75003207     2.21500
Zr586      Zr  0.07085205  0.52273878  0.75546363     2.11130
O587        O  0.03249379  0.49918520  0.67137358    -2.46640
O588        O  0.95140480  0.45761652  0.66762026    -0.78660
O589        O  0.03162018  0.44850937  0.75922815    -0.70860
O590        O  0.94932116  0.51483349  0.74720997    -2.31820
O591        O  0.95103762  0.40749496  0.75785850    -2.28020
O592        O  0.03017680  0.55585665  0.74998346    -0.72620
H593        H  0.04728195  0.51716027  0.87047497     0.79380
H594        H  0.93126141  0.52649680  0.74504607     0.80460
H595        H  0.05097610  0.50710067  0.63963111     0.82690
H596        H  0.93339511  0.37746557  0.75987533     0.80300
H597        H  0.96913761  0.59875115  0.79050320     0.43330
H598        H  0.01381705  0.61455946  0.70124657     0.42300
H599        H  0.98061472  0.49914292  0.55709285     0.41980
H600        H  0.01615346  0.44849414  0.56396004     0.39910
H601        H  0.00118491  0.36086239  0.72607646     0.43050
H602        H  0.96149033  0.34542980  0.82570171     0.37830
H603        H  0.97129119  0.45093528  0.94834607     0.43950
H604        H  0.01595108  0.54685836  0.94185587     0.40360
H605        H  0.00018644  0.40047249  0.56682293     0.45280
H606        H  0.97674361  0.35629390  0.88710479     0.44000
H607        H  0.98483146  0.56372007  0.94141923     0.44140
H608        H  0.01022131  0.61388611  0.63674567     0.44500
O609        O  0.45975461  0.37679035  0.64240674    -0.74370
O610        O  0.51173037  0.38239631  0.69782456    -0.53280
C611        C  0.48613098  0.36619432  0.65735294     0.79360
O612        O  0.53315756  0.58751274  0.63562297    -0.58970
O613        O  0.47418049  0.58005437  0.67765941    -0.52000
C614        C  0.50503201  0.59792101  0.64353448     0.71370
O615        O  0.60024387  0.51228858  0.65061999    -0.73530
O616        O  0.58942737  0.45746346  0.70492412    -0.54100
C617        C  0.60963782  0.48503314  0.66747943     0.77370
O618        O  0.38286655  0.43698653  0.64275065    -0.58680
O619        O  0.39382103  0.49884896  0.67775345    -0.51790
C620        C  0.37331777  0.46562441  0.64760502     0.73970
Zr621      Zr  0.43885551  0.42650659  0.67071811     2.54710
O622        O  0.44455006  0.43054772  0.57023943    -0.79240
O623        O  0.37514775  0.35831842  0.67033160    -0.92660
Zr624      Zr  0.54712128  0.53261822  0.66770549     2.64680
O625        O  0.54582082  0.52350865  0.56754050    -0.97610
O626        O  0.61383840  0.59777829  0.66505191    -0.79670
O627        O  0.51224901  0.45854752  0.67307761    -0.83030
O628        O  0.47324450  0.50027873  0.66364874    -2.17740
O629        O  0.38142248  0.45288648  0.85526633    -0.66420
O630        O  0.39315592  0.50963274  0.80465132    -0.50990
C631        C  0.37313666  0.48143583  0.84165603     0.72350
O632        O  0.59484475  0.52240954  0.86395148    -0.59330
O633        O  0.58476673  0.46239899  0.82434906    -0.51310
C634        C  0.60491211  0.49414824  0.85657586     0.74150
O635        O  0.53029334  0.59659677  0.84528551    -0.70720
O636        O  0.47639606  0.58925736  0.79317569    -0.49400
C637        C  0.50580661  0.60927511  0.82839744     0.75530
O638        O  0.44125223  0.37379453  0.86137148    -0.66050
O639        O  0.50085405  0.38139886  0.82344253    -0.53250
C640        C  0.46783161  0.36152640  0.85394048     0.73920
Zr641      Zr  0.43410190  0.43334442  0.83482625     2.77540
O642        O  0.44663526  0.44797296  0.93354609    -0.96800
O643        O  0.36561734  0.37190779  0.84950476    -0.77620
Zr644      Zr  0.54295971  0.53877054  0.83096746     2.70070
O645        O  0.54115886  0.54647814  0.93110173    -0.78870
O646        O  0.61259648  0.59913006  0.82090587    -0.97960
Zr647      Zr  0.52794864  0.44051139  0.76008478     2.21500
Zr648      Zr  0.45159150  0.52373831  0.74296551     2.11130
O649        O  0.46923488  0.50730207  0.82995751    -2.46640
O650        O  0.50774260  0.46483672  0.83958188    -0.78660
O651        O  0.41585689  0.44946800  0.74857173    -0.70860
O652        O  0.56437521  0.51489838  0.75345230    -2.31820
O653        O  0.45394570  0.40752593  0.75650345    -2.28020
O654        O  0.52584183  0.55696464  0.74564268    -0.72620
H655        H  0.46513101  0.50784065  0.62985152     0.79380
H656        H  0.59417863  0.52634558  0.75509462     0.80460
H657        H  0.46041711  0.51849839  0.86014944     0.82690
H658        H  0.44097921  0.37742841  0.75726412     0.80300
H659        H  0.62811685  0.59759081  0.69926427     0.43330
H660        H  0.60925642  0.61744740  0.79453912     0.42300
H661        H  0.51287375  0.54163627  0.93943988     0.41980
H662        H  0.42851374  0.45926704  0.94505591     0.39910
H663        H  0.35422162  0.36297312  0.81176550     0.43050
H664        H  0.38224270  0.33950413  0.69011591     0.37830
H665        H  0.47380492  0.43839765  0.56201600     0.43950
H666        H  0.52209380  0.52636926  0.55504426     0.40360
H667        H  0.43378622  0.42011826  0.95102071     0.45280
H668        H  0.37183525  0.34885700  0.63122940     0.44000
H669        H  0.57091976  0.54908511  0.55401271     0.44140
H670        H  0.61816919  0.61373383  0.85708199     0.44500
O671        O  0.59296061  0.05256138  0.63565990    -0.74370
O672        O  0.58731490  0.10190965  0.68696197    -0.53280
C673        C  0.60390707  0.09051422  0.64875265     0.79360
O674        O  0.37934360  0.91291332  0.65053390    -0.58970
O675        O  0.38654674  0.86257855  0.69258025    -0.52000
C676        C  0.36634872  0.87428430  0.66145948     0.71370
O677        O  0.45497321  0.05456306  0.64669574    -0.73530
O678        O  0.50983128  0.10377760  0.69636397    -0.54100
C679        C  0.48078193  0.09300358  0.66031103     0.77370
O680        O  0.52954103  0.91196529  0.64309348    -0.58680
O681        O  0.47347800  0.86233220  0.69045232    -0.51790
C682        C  0.50425868  0.87352967  0.65616933     0.73970
Zr683      Zr  0.54208666  0.98193840  0.66527622     2.54710
O684        O  0.53593875  0.97705881  0.56487666    -0.79240
O685        O  0.61074014  0.98847304  0.66438058    -0.92660
Zr686      Zr  0.43651011  0.98314041  0.67197467     2.64680
O687        O  0.43534686  0.98467814  0.57139112    -0.97610
O688        O  0.37115272  0.98254668  0.68421670    -0.79670
O689        O  0.51016165  0.02355938  0.66832224    -0.83030
O690        O  0.46811011  0.94099506  0.66610336    -2.17740
O691        O  0.52969683  0.91174195  0.85427672    -0.66420
O692        O  0.47021515  0.86258980  0.81098424    -0.50990
C693        C  0.50104768  0.87372218  0.84431009     0.72350
O694        O  0.45395553  0.05184219  0.86348032    -0.59330
O695        O  0.51128354  0.10107408  0.81644953    -0.51310
C696        C  0.48149699  0.08984054  0.85212004     0.74150
O697        O  0.38263503  0.91294142  0.85840248    -0.70720
O698        O  0.38901740  0.86283544  0.81020732    -0.49400
C699        C  0.37103043  0.87477385  0.84600567     0.75530
O700        O  0.60097498  0.05213645  0.85174045    -0.66050
O701        O  0.59489857  0.10225076  0.80726702    -0.53250
C702        C  0.61430060  0.09073357  0.84013145     0.73920
Zr703      Zr  0.54499567  0.98169389  0.82851600     2.77540
O704        O  0.54661488  0.98367458  0.92930943    -0.96800
O705        O  0.60901555  0.97922600  0.81803264    -0.77620
Zr706      Zr  0.43888375  0.98250104  0.83507479     2.70070
O707        O  0.44595138  0.98290898  0.93508893    -0.78870
O708        O  0.37400874  0.98386230  0.84069009    -0.97960
Zr709      Zr  0.53150414  0.06353470  0.75210796     2.21500
Zr710      Zr  0.44924370  0.90047980  0.74908121     2.11130
O711        O  0.47099176  0.94097190  0.83272371    -2.46640
O712        O  0.51286594  0.02323470  0.83465403    -0.78660
O713        O  0.52337410  0.94094620  0.74634223    -0.70860
O714        O  0.45732609  0.02360298  0.75422522    -2.31820
O715        O  0.56463962  0.02265551  0.74740631    -2.28020
O716        O  0.41691608  0.94202147  0.75287462    -0.72620
H717        H  0.45847712  0.92303586  0.63376239     0.79380
H718        H  0.44533769  0.04146606  0.75568991     0.80460
H719        H  0.46225968  0.92311165  0.86481598     0.82690
H720        H  0.59458951  0.04049925  0.74585302     0.80300
H721        H  0.37246228  0.99376494  0.72201738     0.43330
H722        H  0.35396787  0.95992253  0.81767080     0.42300
H723        H  0.47596206  0.00243144  0.94199778     0.41980
H724        H  0.51959688  0.95942571  0.94091900     0.39910
H725        H  0.60390829  0.96034139  0.78596191     0.43050
H726        H  0.62688199  0.00940107  0.69340219     0.37830
H727        H  0.53103745  0.00001100  0.55452355     0.43950
H728        H  0.44896175  0.96880181  0.55916821     0.40360
H729        H  0.56762834  0.97587899  0.93898673     0.45280
H730        H  0.62387480  0.00261363  0.62910102     0.44000
H731        H  0.40561674  0.96657642  0.56157090     0.44140
H732        H  0.36396131  0.97564711  0.87920828     0.44500
C733        C  0.27760953  0.78277446  0.95508288    -0.04420
C734        C  0.26485507  0.79426951  0.90566138    -0.01530
C735        C  0.29540143  0.81988492  0.86556467     0.03450
C736        C  0.33763584  0.84266729  0.88094031    -0.04420
C737        C  0.34825767  0.83756335  0.93405357    -0.01520
C738        C  0.32131099  0.80194981  0.96345830     0.03450
C739        C  0.22275028  0.78568556  0.89774373     0.38100
C740        C  0.37835473  0.87371678  0.96506815     0.38090
C741        C  0.33986125  0.78838950  0.00444912     0.36520
C742        C  0.28329209  0.82665788  0.81163778     0.36520
N743        N  0.35628436  0.77906768  0.53686625    -0.38300
N744        N  0.27375297  0.83200200  0.76843789    -0.38310
N745        N  0.40021206  0.90291578  0.99126023    -0.37750
N746        N  0.18995274  0.78079145  0.88934903    -0.37750
C747        C  0.26588379  0.78238206  0.55875270    -0.04420
C748        C  0.27360123  0.82385232  0.56182527    -0.01530
C749        C  0.30373816  0.85331006  0.59830593     0.03450
C750        C  0.32625257  0.84148767  0.63396055    -0.04420
C751        C  0.31087845  0.79788737  0.63996022    -0.01520
C752        C  0.28206842  0.76862518  0.60133707     0.03450
C753        C  0.25153585  0.83687125  0.52521162     0.38100
C754        C  0.32454011  0.78255479  0.68536857     0.38090
C755        C  0.27453400  0.72621083  0.60161223     0.36520
C756        C  0.31095393  0.89566894  0.59769356     0.36520
N757        N  0.26991240  0.69289350  0.60315307    -0.38300
N758        N  0.31592726  0.92911918  0.59605103    -0.38310
N759        N  0.33474625  0.77004724  0.72203981    -0.37750
N760        N  0.23399026  0.84765086  0.49671609    -0.37750
C761        C  0.12912482  0.64620092  0.87028581    -0.04420
C762        C  0.17253482  0.66136815  0.86284245    -0.01530
C763        C  0.20160056  0.68812339  0.90304481     0.03450
C764        C  0.18811747  0.70360780  0.94779898    -0.04420
C765        C  0.14689658  0.69642030  0.94686800    -0.01520
C766        C  0.11741989  0.66748798  0.90943566     0.03450
C767        C  0.18783687  0.65135969  0.81277457     0.38100
C768        C  0.13467600  0.71988473  0.98348904     0.38090
C769        C  0.07532322  0.66070173  0.91196685     0.36520
C770        C  0.24465011  0.69809467  0.89889884     0.36520
N771        N  0.04205967  0.65596077  0.91482967    -0.38300
N772        N  0.27889745  0.70568644  0.89514658    -0.38310
N773        N  0.12366758  0.73853144  0.01063989    -0.37750
N774        N  0.20020671  0.64388461  0.77254681    -0.37750
C775        C  0.13305648  0.62952231  0.62036044    -0.04420
C776        C  0.15081162  0.61913425  0.57585243    -0.01530
C777        C  0.18258220  0.65087785  0.54405638     0.03450
C778        C  0.19141446  0.69287887  0.54915854    -0.04420
C779        C  0.17298228  0.70318719  0.59423285    -0.01520
C780        C  0.14526420  0.67161421  0.63095960     0.03450
C781        C  0.13379633  0.57565671  0.55937615     0.38100
C782        C  0.17987474  0.74499909  0.60240329     0.38090
C783        C  0.12731041  0.68193547  0.67806467     0.36520
C784        C  0.20666985  0.63975571  0.50716960     0.36520
N785        N  0.11296204  0.69000918  0.71570074    -0.38300
N786        N  0.22576396  0.62950500  0.97967464    -0.38310
N787        N  0.18391001  0.77768429  0.61087264    -0.37750
N788        N  0.11966968  0.54115327  0.54525660    -0.37750
C789        C  0.27579426  0.47055775  0.95254422    -0.04420
C790        C  0.31727895  0.50494134  0.95698645    -0.01530
C791        C  0.34855174  0.51029165  0.91830170     0.03450
C792        C  0.33887152  0.48218778  0.87361578    -0.04420
C793        C  0.29714400  0.45065069  0.86539598    -0.01520
C794        C  0.26571453  0.44443610  0.90458218     0.03450
C795        C  0.32827435  0.53387368  0.00328216     0.38100
C796        C  0.28706897  0.42317283  0.81747096     0.38090
C797        C  0.22478585  0.40821163  0.89680455     0.36520
C798        C  0.39161395  0.54275513  0.92652542     0.36520
N799        N  0.19368576  0.37799283  0.88692080    -0.38300
N800        N  0.42633802  0.56797429  0.93219005    -0.38310
N801        N  0.27919262  0.40142431  0.77916372    -0.37750
N802        N  0.33649907  0.55652223  0.54064257    -0.37750
C803        C  0.33561672  0.45906395  0.61648071    -0.04420
C804        C  0.31232213  0.47739970  0.63547011    -0.01530
C805        C  0.27708937  0.47170699  0.60581592     0.03450
C806        C  0.26541271  0.44880114  0.55457568    -0.04420
C807        C  0.28343339  0.42366554  0.54354369    -0.01520
C808        C  0.32016926  0.43135084  0.57028466     0.03450
C809        C  0.32313516  0.50089120  0.68745271     0.38100
C810        C  0.26368013  0.38888466  0.50478309     0.38090
C811        C  0.34275380  0.41213635  0.54686683     0.36520
C812        C  0.24984506  0.48156702  0.63715815     0.36520
N813        N  0.36020870  0.39664168  0.52699319    -0.38300
N814        N  0.23056836  0.48869055  0.66891955    -0.38310
N815        N  0.24840661  0.36025544  0.97519207    -0.37750
N816        N  0.33120125  0.51952340  0.72871674    -0.37750
C817        C  0.13227262  0.47004020  0.88115422    -0.04420
C818        C  0.17240088  0.50467311  0.89251330    -0.01530
C819        C  0.20156224  0.49958966  0.92381972     0.03450
C820        C  0.18915142  0.46140703  0.95108196    -0.04420
C821        C  0.14990202  0.42632053  0.93684056    -0.01520
C822        C  0.12348787  0.43017717  0.89893775     0.03450
C823        C  0.18358139  0.54624368  0.87483142     0.38100
C824        C  0.13588456  0.38530592  0.95977255     0.38090
C825        C  0.08812447  0.39250404  0.87663286     0.36520
C826        C  0.24424481  0.53380939  0.92668242     0.36520
N827        N  0.06079084  0.36200297  0.85850073    -0.38300
N828        N  0.27817169  0.56170859  0.92654408    -0.38310
N829        N  0.12294647  0.35135872  0.97480167    -0.37750
N830        N  0.19306771  0.57978456  0.86153362    -0.37750
C831        C  0.13413228  0.46726982  0.63303222    -0.04420
C832        C  0.16888172  0.50432724  0.61289986    -0.01530
C833        C  0.19459650  0.50207927  0.57114875     0.03450
C834        C  0.18904020  0.46278449  0.55417552    -0.04420
C835        C  0.16038312  0.42671923  0.58364464    -0.01520
C836        C  0.13128041  0.42840672  0.62032806     0.03450
C837        C  0.18049314  0.54466876  0.63775706     0.38100
C838        C  0.16374155  0.38941580  0.58081494     0.38090
C839        C  0.09973882  0.39035921  0.64681683     0.36520
C840        C  0.23097515  0.54056965  0.55319820     0.36520
N841        N  0.07472350  0.35980111  0.66774349    -0.38300
N842        N  0.26022433  0.57224194  0.54225279    -0.38310
N843        N  0.16690703  0.35986534  0.57985828    -0.37750
N844        N  0.19075642  0.57684288  0.65824341    -0.37750
C845        C  0.51380891  0.70492482  0.93736899    -0.04420
C846        C  0.48014829  0.68642411  0.89948063    -0.01530
C847        C  0.47789294  0.65672014  0.86003148     0.03450
C848        C  0.51121738  0.64859126  0.85470303    -0.04420
C849        C  0.54887178  0.67579354  0.88211929    -0.01520
C850        C  0.54912125  0.70086640  0.92632872     0.03450
C851        C  0.44641032  0.69532961  0.90199463     0.38100
C852        C  0.58802000  0.67971166  0.86365032     0.38090
C853        C  0.58636360  0.72246260  0.95993989     0.36520
C854        C  0.44048585  0.63371173  0.82701644     0.36520
N855        N  0.61707522  0.73946255  0.98475382    -0.38300
N856        N  0.41052659  0.61545142  0.80091400    -0.38310
N857        N  0.62012549  0.68496094  0.84912981    -0.37750
N858        N  0.41838202  0.70083409  0.90144664    -0.37750
C859        C  0.50673318  0.69433998  0.54081370    -0.04420
C860        C  0.53913290  0.70486510  0.57962727    -0.01530
C861        C  0.53878913  0.67347475  0.61327195     0.03450
C862        C  0.50631772  0.63148673  0.60874368    -0.04420
C863        C  0.47290402  0.62143509  0.57295993    -0.01520
C864        C  0.47246461  0.65262285  0.54070764     0.03450
C865        C  0.57343085  0.74733988  0.58531291     0.38100
C866        C  0.43952956  0.57823629  0.56747801     0.38090
C867        C  0.43506612  0.64174974  0.50992018     0.36520
C868        C  0.57180005  0.68431158  0.65291455     0.36520
N869        N  0.40418714  0.63228679  0.48743143    -0.38300
N870        N  0.59802562  0.69285397  0.68468074    -0.38310
N871        N  0.41335369  0.54368477  0.56272133    -0.37750
N872        N  0.60176177  0.78059072  0.59185577    -0.37750
C873        C  0.50213436  0.84060639  0.87719069    -0.04420
C874        C  0.47595017  0.82459328  0.92355311    -0.01530
C875        C  0.47394887  0.79160735  0.95338718     0.03450
C876        C  0.50636480  0.78225316  0.94900372    -0.04420
C877        C  0.53544543  0.80073138  0.90427866    -0.01520
C878        C  0.53129180  0.82759316  0.86645518     0.03450
C879        C  0.46074394  0.84924417  0.95030383     0.38100
C880        C  0.57123093  0.79541232  0.89785433     0.38090
C881        C  0.55895230  0.84437727  0.81886735     0.36520
C882        C  0.43747307  0.76674021  0.98752885     0.36520
N883        N  0.58091643  0.85778381  0.78079742    -0.38300
N884        N  0.40741638  0.74560290  0.51260674    -0.38310
N885        N  0.60109222  0.79355257  0.89022550    -0.37750
N886        N  0.45264617  0.87091019  0.97542791    -0.37750
C887        C  0.51619034  0.78252302  0.55274879    -0.04420
C888        C  0.54974356  0.82406669  0.55807197    -0.01530
C889        C  0.54799580  0.85207135  0.59672271     0.03450
C890        C  0.51095737  0.84041667  0.62783517    -0.04420
C891        C  0.48032489  0.79711098  0.62892024    -0.01520
C892        C  0.48362496  0.76820636  0.59287266     0.03450
C893        C  0.58661463  0.83869749  0.52315081     0.38100
C894        C  0.44466682  0.78160806  0.66616526     0.38090
C895        C  0.45153398  0.72453088  0.59586836     0.36520
C896        C  0.58546374  0.89238275  0.60472202     0.36520
N897        N  0.42464900  0.69036685  0.60118452    -0.38300
N898        N  0.61633938  0.92379978  0.61013734    -0.38310
N899        N  0.41619403  0.76877203  0.69587577    -0.37750
N900        N  0.61678913  0.85133068  0.49676048    -0.37750
C901        C  0.79135478  0.25773690  0.55946556    -0.04420
C902        C  0.83255664  0.26494136  0.56052632    -0.01530
C903        C  0.86214884  0.29433223  0.59751540     0.03450
C904        C  0.85081608  0.31686294  0.63511985    -0.04420
C905        C  0.80747084  0.30192761  0.64276441    -0.01520
C906        C  0.77793802  0.27323516  0.60444695     0.03450
C907        C  0.84499338  0.24220088  0.52286544     0.38100
C908        C  0.79261632  0.31534283  0.69018678     0.38090
C909        C  0.73500625  0.26350442  0.60952834     0.36520
C910        C  0.90408735  0.30068305  0.59579158     0.36520
N911        N  0.70134602  0.25726294  0.61545818    -0.38300
N912        N  0.93727971  0.30518583  0.59372532    -0.38310
N913        N  0.78042156  0.32531373  0.72836282    -0.37750
N914        N  0.85587402  0.22410083  0.99436680    -0.37750
C915        C  0.79079049  0.27222277  0.95820786    -0.04420
C916        C  0.80720906  0.26166030  0.91103094    -0.01530
C917        C  0.83448801  0.29325825  0.87406426     0.03450
C918        C  0.84922583  0.33553521  0.88709473    -0.04420
C919        C  0.83447341  0.34638438  0.93436035    -0.01520
C920        C  0.80265814  0.31499420  0.96644395     0.03450
C921        C  0.79955943  0.21972684  0.90138141     0.38100
C922        C  0.85366736  0.38997071  0.95180864     0.38090
C923        C  0.78310248  0.32777204  0.00852738     0.36520
C924        C  0.84951812  0.28266206  0.82412376     0.36520
N925        N  0.76877422  0.33971262  0.54174076    -0.38300
N926        N  0.86147141  0.27438660  0.78416930    -0.38310
N927        N  0.86925694  0.42456852  0.96611431    -0.37750
N928        N  0.79520463  0.18708691  0.89150245    -0.37750
C929        C  0.65380454  0.12354441  0.86880420    -0.04420
C930        C  0.66914994  0.16723162  0.86358162    -0.01530
C931        C  0.69755628  0.19612150  0.90297561     0.03450
C932        C  0.71355604  0.18206476  0.94531473    -0.04420
C933        C  0.70590909  0.14061846  0.94143619    -0.01520
C934        C  0.67598465  0.11145334  0.90455796     0.03450
C935        C  0.65629028  0.18298193  0.81775707     0.38100
C936        C  0.72948292  0.12762905  0.97504200     0.38090
C937        C  0.66899188  0.06912971  0.90434543     0.36520
C938        C  0.70845793  0.23956519  0.90048425     0.36520
N939        N  0.66408592  0.03568772  0.90535008    -0.38300
N940        N  0.71645404  0.27402334  0.89747543    -0.38310
N941        N  0.74819195  0.11608460  0.49975540    -0.37750
N942        N  0.64650891  0.19573930  0.78090963    -0.37750
C943        C  0.70219227  0.18303818  0.54757102    -0.04420
C944        C  0.66107210  0.17625923  0.54489404    -0.01530
C945        C  0.62873374  0.14482535  0.57634793     0.03450
C946        C  0.63795484  0.12371043  0.61642150    -0.04420
C947        C  0.67949282  0.13396749  0.62500500    -0.01520
C948        C  0.71157432  0.16264768  0.58968104     0.03450
C949        C  0.65210962  0.20301408  0.51172499     0.38100
C950        C  0.68890549  0.11417697  0.66960981     0.38090
C951        C  0.75315258  0.16932917  0.59672795     0.36520
C952        C  0.58566910  0.13217663  0.56450765     0.36520
N953        N  0.78565451  0.17324890  0.60435643    -0.38300
N954        N  0.55140778  0.12151686  0.55384853    -0.38310
N955        N  0.69635734  0.09857494  0.70542292    -0.37750
N956        N  0.64453059  0.22483533  0.98698395    -0.37750
C957        C  0.45639728  0.25575563  0.94809111    -0.04420
C958        C  0.48106396  0.26932631  0.89863091    -0.01530
C959        C  0.48183550  0.30119805  0.86561353     0.03450
C960        C  0.45998478  0.32184423  0.88244112    -0.04420
C961        C  0.43045311  0.30351989  0.92636099    -0.01520
C962        C  0.42693081  0.26907010  0.95578121     0.03450
C963        C  0.50671056  0.25253964  0.87947301     0.38100
C964        C  0.40445132  0.32051843  0.94412465     0.38090
C965        C  0.39328695  0.24800395  0.49583828     0.36520
C966        C  0.50588284  0.31269094  0.81420330     0.36520
N967        N  0.36573299  0.23145471  0.52679902    -0.38300
N968        N  0.52517943  0.32151195  0.77348187    -0.38310
N969        N  0.38351623  0.33361482  0.95920305    -0.37750
N970        N  0.52747589  0.24129985  0.85814802    -0.37750
C971        C  0.47816395  0.26966459  0.54892129    -0.04420
C972        C  0.45420405  0.25928254  0.59890162    -0.01530
C973        C  0.46068468  0.29101866  0.63746043     0.03450
C974        C  0.48704440  0.33325094  0.62380765    -0.04420
C975        C  0.51013003  0.34387465  0.57412995    -0.01520
C976        C  0.50880079  0.31229229  0.53992822     0.03450
C977        C  0.41969557  0.21772958  0.60970731     0.38100
C978        C  0.53317563  0.38718878  0.55624663     0.38090
C979        C  0.53802220  0.32419387  0.49388602     0.36520
C980        C  0.43741772  0.28058665  0.68936418     0.36520
N981        N  0.56128637  0.33396162  0.95708172    -0.38300
N982        N  0.41897805  0.27242616  0.73075274    -0.38490
N983        N  0.55115762  0.42158302  0.54155852    -0.37750
N984        N  0.39097992  0.18603215  0.62195214    -0.37750
C985        C  0.47926608  0.12305465  0.88392602    -0.04420
C986        C  0.51468978  0.15334951  0.91254862    -0.01530
C987        C  0.51211855  0.18300395  0.94637796     0.03450
C988        C  0.47368082  0.18172539  0.95396266    -0.04420
C989        C  0.43945651  0.15455474  0.92055575    -0.01520
C990        C  0.44189076  0.12447329  0.88661337     0.03450
C991        C  0.55348319  0.15296791  0.90959165     0.38100
C992        C  0.40268498  0.15863352  0.41901256     0.38090
C993        C  0.40591058  0.09492020  0.85473344     0.36520
C994        C  0.55033345  0.21872492  0.96634967     0.36520
N995        N  0.37709334  0.07124280  0.82955087    -0.38300
N996        N  0.58125584  0.24829966  0.97876657    -0.38310
N997        N  0.37333828  0.16191997  0.41683739    -0.37750
N998        N  0.58435163  0.15248712  0.90778909    -0.37750
C999        C  0.47616068  0.12648115  0.63125889    -0.04420
C1000       C  0.50981914  0.16819788  0.62429933    -0.01530
C1001       C  0.50560070  0.19650888  0.58935802     0.03450
C1002       C  0.46932700  0.18249031  0.55683556    -0.04420
C1003       C  0.43460317  0.14248963  0.56855012    -0.01520
C1004       C  0.43731744  0.11613625  0.60779848     0.03450
C1005       C  0.54946053  0.18216302  0.65120330     0.38100
C1006       C  0.39473330  0.12827313  0.54209844     0.38090
C1007       C  0.39908771  0.07917788  0.62549065     0.36520
C1008       C  0.53855652  0.23992779  0.58790369     0.36520
N1009       N  0.36782646  0.05052422  0.63922007    -0.38300
N1010       N  0.56509361  0.27458204  0.58832836    -0.38310
N1011       N  0.36178249  0.11564624  0.52392669    -0.37750
N1012       N  0.58129178  0.19351629  0.67223231    -0.37750
C1013       C  0.70521379  0.49909464  0.95602011    -0.04420
C1014       C  0.69686460  0.53248765  0.95768616    -0.01530
C1015       C  0.66381024  0.53064016  0.92719139     0.03450
C1016       C  0.64204825  0.49826428  0.88749683    -0.04420
C1017       C  0.65664695  0.46985556  0.87754009    -0.01520
C1018       C  0.68567002  0.46844275  0.91363110     0.03450
C1019       C  0.72313496  0.57026877  0.48925589     0.38100
C1020       C  0.64226414  0.44156492  0.82999207     0.38090
C1021       C  0.69245247  0.43354136  0.90638946     0.36520
C1022       C  0.65255821  0.56235056  0.93866407     0.36520
N1023       N  0.69394904  0.40380691  0.89544442    -0.38300
N1024       N  0.64395805  0.58772675  0.94890010    -0.38310
N1025       N  0.63125681  0.41909553  0.79215941    -0.37750
N1026       N  0.74361776  0.60184315  0.51186246    -0.37750
C1027       C  0.64536705  0.48448140  0.63941482    -0.04420
C1028       C  0.63921719  0.44787190  0.61266458    -0.01530
C1029       C  0.66537122  0.45092220  0.56808543     0.03450
C1030       C  0.70392881  0.48835654  0.55941186    -0.04420
C1031       C  0.71526589  0.52170337  0.59779370    -0.01520
C1032       C  0.68467711  0.52113117  0.63414127     0.03450
C1033       C  0.60838679  0.40713929  0.63337884     0.38100
C1034       C  0.75743973  0.55678060  0.60031475     0.38090
C1035       C  0.69402598  0.55765690  0.66747486     0.36520
C1036       C  0.65252120  0.41487790  0.53225298     0.36520
N1037       N  0.70153497  0.58678250  0.69418108    -0.38300
N1038       N  0.64220775  0.38518523  0.50546124    -0.38310
N1039       N  0.79056834  0.58558350  0.60491923    -0.37750
N1040       N  0.58540825  0.37451826  0.65137610    -0.37750
C1041       C  0.85106333  0.49443197  0.62142782    -0.04420
C1042       C  0.80809466  0.46369936  0.62620199    -0.01530
C1043       C  0.77827751  0.46390939  0.59035517     0.03450
C1044       C  0.79010694  0.49684513  0.55192624    -0.04420
C1045       C  0.83139592  0.53129654  0.55496514    -0.01520
C1046       C  0.86176299  0.52969787  0.58765767     0.03450
C1047       C  0.79356667  0.43147842  0.66824917     0.38100
C1048       C  0.84331359  0.56980073  0.02574459     0.38090
C1049       C  0.90393240  0.56545497  0.58593021     0.36520
C1050       C  0.73628501  0.42858709  0.59358049     0.36520
N1051       N  0.93715988  0.59438365  0.58311537    -0.38300
N1052       N  0.70441847  0.39847145  0.60053610    -0.38310
N1053       N  0.85472656  0.60189527  0.00517127    -0.37750
N1054       N  0.78141398  0.40609388  0.70214375    -0.37750
C1055       C  0.78316223  0.48983966  0.94798493    -0.04420
C1056       C  0.78418228  0.45271092  0.93700018    -0.01530
C1057       C  0.80933220  0.45127313  0.89393763     0.03450
C1058       C  0.84110819  0.48885002  0.87057375    -0.04420
C1059       C  0.83838066  0.52531737  0.87799612    -0.01520
C1060       C  0.80692917  0.52454624  0.91291649     0.03450
C1061       C  0.75773396  0.41493150  0.96781180     0.38100
C1062       C  0.86666565  0.56298409  0.84798491     0.38090
C1063       C  0.79934200  0.55919670  0.91183698     0.36520
C1064       C  0.80043502  0.41100256  0.87190244     0.36520
N1065       N  0.79413129  0.58740639  0.90904002    -0.38300
N1066       N  0.79170217  0.37867336  0.85322024    -0.38310
N1067       N  0.88915775  0.59309394  0.82400605    -0.37750
N1068       N  0.73528260  0.38376998  0.98962501    -0.37750
loop_ 
_geom_bond_atom_site_label_1 
_geom_bond_atom_site_label_2 
_geom_bond_distance 
_geom_bond_site_symmetry_2 
_ccdc_geom_bond_type 
C1          C521   1.512       .  S
C1         C1044   1.519       .  S
C1          C536   1.380       .  D
C2          C496   1.513       .  S
C2         C1013   1.521   1_554  S
C2          C535   1.380       .  D
C3          C468   1.520       .  S
C3          C988   1.491   1_554  S
C3            C4   1.378       .  D
C4          C437   1.515       .  S
C4          C957   1.538   1_554  S
C5          C398   1.518       .  S
C5          C943   1.506       .  S
C5            C6   1.377       .  D
C6          C381   1.512       .  S
C6          C901   1.516       .  S
C7          C325   1.521   1_556  S
C7          C845   1.507       .  S
C7            C8   1.377       .  D
C8          C353   1.520   1_556  S
C8          C876   1.523       .  S
C9          C286   1.514       .  S
C9          C834   1.495       .  S
C9          C544   1.382       .  D
C10         C272   1.544       .  S
C10         C789   1.530   1_554  S
C10         C543   1.382       .  D
C11         C199   1.527       .  S
C11         C747   1.521       .  S
C11          C12   1.379       .  D
C12         C230   1.511       .  S
C12         C778   1.512       .  S
O13         Zr25   2.424       .  S
O13          C15   1.284       .  A
O14         Zr51   2.416       .  S
O14          C15   1.284       .  A
C15         C384   1.464       .  S
O16         Zr28   2.448   1_455  S
O16          C18   1.289       .  A
O17         Zr52   2.429       .  S
O17          C18   1.287       .  A
C18         C227   1.514       .  S
O19         Zr28   2.478       .  S
O19          C21   1.295       .  A
O20         Zr51   2.410       .  S
O20          C21   1.284       .  A
C21         C524   1.497       .  S
O22         Zr25   2.452   1_455  S
O22          C24   1.291       .  A
O23         Zr52   2.431       .  S
O23          C24   1.287       .  A
C24         C283   1.507       .  S
Zr25         O26   2.435       .  S
Zr25         O27   2.434       .  S
Zr25         O31   2.376       .  S
Zr25         O32   2.364   1_655  S
Zr25         O55   2.364   1_655  S
Zr25         O57   2.374       .  S
O26          H69   0.990       .  S
O27          H68   0.990       .  S
O27          H72   0.990       .  S
Zr28         O29   2.436       .  S
Zr28         O30   2.434       .  S
Zr28         O32   2.383   1_655  S
Zr28         O31   2.366       .  S
Zr28         O56   2.362       .  S
Zr28         O58   2.375   1_655  S
O29          H70   0.990   1_655  S
O29          H73   0.990       .  S
O30          H63   0.990       .  S
O31         Zr51   2.386       .  S
O32         Zr52   2.389       .  S
O32          H59   0.966       .  S
O33         Zr45   2.432   1_455  S
O33          C35   1.286       .  A
O34         Zr52   2.431       .  S
O34          C35   1.288       .  A
C35         C297   1.492       .  S
O36         Zr48   2.431       .  S
O36          C38   1.285       .  A
O37         Zr51   2.433       .  S
O37          C38   1.288       .  A
C38         C507   1.515       .  S
O39         Zr48   2.428   1_455  S
O39          C41   1.284       .  A
O40         Zr52   2.420       .  S
O40          C41   1.285       .  A
C41         C241   1.469       .  S
O42         Zr45   2.441       .  S
O42          C44   1.287       .  A
O43         Zr51   2.429       .  S
O43          C44   1.287       .  A
C44         C370   1.515       .  S
Zr45         O46   2.436       .  S
Zr45         O47   2.432       .  S
Zr45         O53   2.372   1_655  S
Zr45         O54   2.373       .  S
Zr45         O57   2.358       .  S
Zr45         O55   2.374   1_655  S
O46          H66   0.990   1_655  S
O46          H71   0.990   1_655  S
O47          H67   0.990   1_655  S
Zr48         O49   2.434       .  S
Zr48         O50   2.435       .  S
Zr48         O54   2.378       .  S
Zr48         O53   2.370   1_655  S
Zr48         O58   2.365   1_655  S
Zr48         O56   2.364       .  S
O49          H65   0.990       .  S
O50          H64   0.990   1_655  S
O50          H74   0.990   1_655  S
Zr51         O54   2.378       .  S
Zr51         O56   2.378       .  S
Zr51         O57   2.381       .  S
Zr52         O53   2.386       .  S
Zr52         O55   2.375       .  S
Zr52         O58   2.383       .  S
O53          H61   0.966       .  S
O56          H60   0.966       .  S
O57          H62   0.966       .  S
O75         Zr87   2.419       .  S
O75          C77   1.282       .  A
O76        Zr113   2.425       .  S
O76          C77   1.286       .  A
C77         C440   1.470       .  S
O78         Zr90   2.473       .  S
O78          C80   1.294       .  A
O79        Zr114   2.413       .  S
O79          C80   1.285       .  A
C80         C328   1.490       .  S
O81         Zr90   2.468       .  S
O81          C83   1.294       .  A
O82        Zr113   2.423       .  S
O82          C83   1.287       .  A
C83         C493   1.490       .  S
O84         Zr87   2.405       .  S
O84          C86   1.280       .  A
O85        Zr114   2.447       .  S
O85          C86   1.292       .  A
C86         C269   1.504       .  S
Zr87         O88   2.433       .  S
Zr87         O89   2.437       .  S
Zr87         O93   2.361       .  S
Zr87         O94   2.367       .  S
Zr87        O117   2.373       .  S
Zr87        O119   2.360       .  S
O88         H131   0.990       .  S
O89         H130   0.990       .  S
O89         H134   0.990       .  S
Zr90         O91   2.436       .  S
Zr90         O92   2.434       .  S
Zr90         O94   2.378       .  S
Zr90         O93   2.373       .  S
Zr90        O118   2.372       .  S
Zr90        O120   2.369       .  S
O91         H132   0.990       .  S
O91         H135   0.990       .  S
O92         H125   0.990       .  S
O93        Zr113   2.380       .  S
O94        Zr114   2.385       .  S
O94         H121   0.966       .  S
O95        Zr107   2.446       .  S
O95          C97   1.288       .  A
O96        Zr114   2.447       .  S
O96          C97   1.290       .  A
C97         C258   1.491       .  S
O98        Zr110   2.438       .  S
O98         C100   1.286       .  A
O99        Zr113   2.418       .  S
O99         C100   1.285       .  A
C100        C482   1.515       .  S
O101       Zr110   2.432       .  S
O101        C103   1.288       .  A
O102       Zr114   2.429       .  S
O102        C103   1.287       .  A
C103        C314   1.499       .  S
O104       Zr107   2.444       .  S
O104        C106   1.287       .  A
O105       Zr113   2.443       .  S
O105        C106   1.291       .  A
C106        C426   1.519       .  S
Zr107       O108   2.436       .  S
Zr107       O109   2.433       .  S
Zr107       O115   2.368       .  S
Zr107       O116   2.373       .  S
Zr107       O119   2.379       .  S
Zr107       O117   2.374       .  S
O108        H128   0.990       .  S
O108        H133   0.989       .  S
O109        H129   0.990       .  S
Zr110       O111   2.435       .  S
Zr110       O112   2.429       .  S
Zr110       O116   2.374       .  S
Zr110       O115   2.373       .  S
Zr110       O120   2.368       .  S
Zr110       O118   2.354       .  S
O111        H127   0.990       .  S
O112        H126   0.990       .  S
O112        H136   0.989       .  S
Zr113       O116   2.378       .  S
Zr113       O118   2.384       .  S
Zr113       O119   2.379       .  S
Zr114       O115   2.385       .  S
Zr114       O117   2.379       .  S
Zr114       O120   2.386       .  S
O115        H123   0.966       .  S
O118        H122   0.966       .  S
O119        H124   0.966       .  S
O137       Zr149   2.437   1_545  S
O137        C139   1.286       .  A
O138       Zr175   2.405       .  S
O138        C139   1.283       .  A
C139        C412   1.465       .  S
O140       Zr152   2.440       .  S
O140        C142   1.287       .  A
O141       Zr176   2.447       .  S
O141        C142   1.291       .  A
C142        C216   1.520       .  S
O143       Zr152   2.457   1_545  S
O143        C145   1.293       .  A
O144       Zr175   2.444       .  S
O144        C145   1.289       .  A
C145        C465   1.516       .  S
O146       Zr149   2.442       .  S
O146        C148   1.289       .  A
O147       Zr176   2.450       .  S
O147        C148   1.291       .  A
C148        C356   1.521       .  S
Zr149       O150   2.434       .  S
Zr149       O151   2.435       .  S
Zr149       O155   2.371   1_565  S
Zr149       O156   2.374       .  S
Zr149       O179   2.366       .  S
Zr149       O181   2.366   1_565  S
O150        H193   0.990   1_565  S
O151        H192   0.989   1_565  S
O151        H196   0.990   1_565  S
Zr152       O153   2.432       .  S
Zr152       O154   2.429       .  S
Zr152       O156   2.381       .  S
Zr152       O155   2.364   1_565  S
Zr152       O180   2.362   1_565  S
Zr152       O182   2.363       .  S
O153        H194   0.990       .  S
O153        H197   0.990       .  S
O154        H187   0.989       .  S
O155       Zr175   2.386       .  S
O156       Zr176   2.395       .  S
O156        H183   0.966       .  S
O157       Zr169   2.442       .  S
O157        C159   1.287       .  A
O158       Zr176   2.449       .  S
O158        C159   1.291       .  A
C159        C339   1.487       .  S
O160       Zr172   2.426   1_545  S
O160        C162   1.284       .  A
O161       Zr175   2.423       .  S
O161        C162   1.287       .  A
C162        C451   1.478       .  S
O163       Zr172   2.426       .  S
O163        C165   1.284       .  A
O164       Zr176   2.437       .  S
O164        C165   1.289       .  A
C165        C202   1.474       .  S
O166       Zr169   2.440   1_545  S
O166        C168   1.288       .  A
O167       Zr175   2.449       .  S
O167        C168   1.290       .  A
C168        C395   1.521       .  S
Zr169       O170   2.435       .  S
Zr169       O171   2.434       .  S
Zr169       O177   2.376       .  S
Zr169       O178   2.377   1_565  S
Zr169       O181   2.365   1_565  S
Zr169       O179   2.366       .  S
O170        H190   0.990       .  S
O170        H195   0.990       .  S
O171        H191   0.990       .  S
Zr172       O173   2.432       .  S
Zr172       O174   2.436       .  S
Zr172       O178   2.374   1_565  S
Zr172       O177   2.373       .  S
Zr172       O182   2.363       .  S
Zr172       O180   2.364   1_565  S
O173        H189   0.990   1_565  S
O174        H188   0.990       .  S
O174        H198   0.990       .  S
Zr175       O178   2.383       .  S
Zr175       O180   2.379       .  S
Zr175       O181   2.385       .  S
Zr176       O177   2.392       .  S
Zr176       O179   2.378       .  S
Zr176       O182   2.381       .  S
O177        H185   0.966       .  S
O180        H184   0.966       .  S
O181        H186   0.965       .  S
C199        C200   1.436       .  A
C199        C204   1.421       .  A
C200        C201   1.425       .  A
C200        C205   1.444       .  S
C201        C202   1.407       .  A
C201        C208   1.449       .  S
C202        C203   1.390       .  A
C203        C204   1.385       .  A
C203        C206   1.445       .  S
C204        C207   1.445       .  S
C205        N212   1.157       .  T
C206        N211   1.156       .  T
C207        N743   1.156       .  T
C208        N210   1.157       .  T
N209        C741   1.156       .  T
C213        C545   1.521       .  S
C213        C214   1.413       .  A
C213        C218   1.420       .  A
C214        C215   1.409       .  A
C214        C219   1.454       .  S
C215        C216   1.425       .  A
C215        C222   1.452       .  S
C216        C217   1.423       .  A
C217        C218   1.421       .  A
C217        C220   1.451       .  S
C218        C221   1.449       .  S
C219        N226   1.157   1_554  T
C220        N225   1.157       .  T
C221        N223   1.157       .  T
C222        N224   1.157       .  T
C227        C228   1.423       .  A
C227        C232   1.421       .  A
C228        C229   1.418       .  A
C228        C233   1.450       .  S
C229        C230   1.416       .  A
C229        C236   1.449       .  S
C230        C231   1.415       .  A
C231        C232   1.407       .  A
C231        C234   1.452       .  S
C232        C235   1.453       .  S
C233        N240   1.158       .  T
C234        N239   1.157       .  T
C235        N237   1.157       .  T
C236        N238   1.158       .  T
C241        C242   1.401       .  A
C241        C246   1.407       .  A
C242        C243   1.400       .  A
C242        C247   1.453       .  S
C243        C244   1.422       .  A
C243        C250   1.450       .  S
C244        C546   1.512       .  S
C244        C245   1.425       .  A
C245        C246   1.414       .  A
C245        C248   1.447       .  S
C246        C249   1.452       .  S
C247        N254   1.157       .  T
C248        N253   1.157       .  T
C249        N251   1.157       .  T
C250        N786   1.157   1_554  T
N252        C784   1.157       .  T
C255        C544   1.530       .  S
C255        C256   1.423       .  A
C255        C260   1.426       .  A
C256        C257   1.415       .  A
C256        C261   1.450       .  S
C257        C258   1.407       .  A
C257        C264   1.450       .  S
C258        C259   1.406       .  A
C259        C260   1.419       .  A
C259        C262   1.453       .  S
C260        C263   1.444       .  S
C261        N802   1.157       .  T
C262        N267   1.157       .  T
C263        N265   1.157       .  T
C264        N266   1.157       .  T
N268        C795   1.157       .  T
C269        C270   1.411       .  A
C269        C274   1.421       .  A
C270        C271   1.418       .  A
C270        C275   1.458       .  S
C271        C272   1.433       .  A
C271        C278   1.440       .  S
C272        C273   1.415       .  A
C273        C274   1.409       .  A
C273        C276   1.451       .  S
C274        C277   1.452       .  S
C275        N282   1.158       .  T
C276        N815   1.157   1_554  T
C277        N279   1.157       .  T
C278        N280   1.158       .  T
N281        C810   1.157       .  T
C283        C284   1.418       .  A
C283        C288   1.413       .  A
C284        C285   1.418       .  A
C284        C289   1.446       .  S
C285        C286   1.415       .  A
C285        C292   1.447       .  S
C286        C287   1.421       .  A
C287        C288   1.410       .  A
C287        C290   1.449       .  S
C288        C291   1.452       .  S
C289        N296   1.155       .  T
C290        N295   1.157       .  T
C291        N293   1.157       .  T
C292        N294   1.157       .  T
C297        C298   1.413       .  A
C297        C302   1.418       .  A
C298        C299   1.409       .  A
C298        C303   1.452       .  S
C299        C300   1.418       .  A
C299        C306   1.449       .  S
C300        C543   1.495       .  S
C300        C301   1.411       .  A
C301        C302   1.413       .  A
C301        C304   1.449       .  S
C302        C305   1.450       .  S
C303        N310   1.158       .  T
C304        N309   1.158       .  T
C305        N307   1.157       .  T
C306        N308   1.157       .  T
C311        C541   1.507       .  S
C311        C312   1.421       .  A
C311        C316   1.414       .  A
C312        C313   1.416       .  A
C312        C317   1.447       .  S
C313        C314   1.417       .  A
C313        C320   1.452       .  S
C314        C315   1.412       .  A
C315        C316   1.402       .  A
C315        C318   1.450       .  S
C316        C319   1.451       .  S
C317        N324   1.157       .  T
C318        N323   1.157       .  T
C319        N321   1.157       .  T
C320        N322   1.158       .  T
C325        C326   1.423       .  A
C325        C330   1.421       .  A
C326        C327   1.421       .  A
C326        C331   1.446       .  S
C327        C328   1.410       .  A
C327        C334   1.451       .  S
C328        C329   1.407       .  A
C329        C330   1.408       .  A
C329        C332   1.452       .  S
C330        C333   1.449       .  S
C331        N338   1.157       .  T
C332        N337   1.157       .  T
C333        N335   1.157   1_554  T
C334        N336   1.157       .  T
C339        C340   1.399       .  A
C339        C344   1.409       .  A
C340        C341   1.395       .  A
C340        C345   1.436       .  S
C341        C342   1.413       .  A
C341        C348   1.446       .  S
C342        C542   1.523       .  S
C342        C343   1.429       .  A
C343        C344   1.425       .  A
C343        C346   1.444       .  S
C344        C347   1.450       .  S
C345        N352   1.152       .  T
C346        N351   1.157       .  T
C347        N349   1.157       .  T
C348        N884   1.156       .  T
N350        C882   1.156   1_554  T
C353        C354   1.414       .  A
C353        C358   1.420       .  A
C354        C355   1.411       .  A
C354        C359   1.453       .  S
C355        C356   1.422       .  A
C355        C362   1.450       .  S
C356        C357   1.422       .  A
C357        C358   1.422       .  A
C357        C360   1.451       .  S
C358        C361   1.447       .  S
C359        N366   1.157   1_554  T
C360        N365   1.157       .  T
C361        N363   1.157       .  T
C362        N364   1.157       .  T
C367        C540   1.516       .  S
C367        C368   1.414       .  A
C367        C372   1.419       .  A
C368        C369   1.408       .  A
C368        C373   1.452       .  S
C369        C370   1.422       .  A
C369        C376   1.452       .  S
C370        C371   1.423       .  A
C371        C372   1.419       .  A
C371        C374   1.451       .  S
C372        C375   1.449       .  S
C373        N914   1.157   1_554  T
C374        N379   1.157       .  T
C375        N377   1.157       .  T
C376        N378   1.157       .  T
N380        C907   1.157       .  T
C381        C382   1.426       .  A
C381        C386   1.425       .  A
C382        C383   1.413       .  A
C382        C387   1.446       .  S
C383        C384   1.405       .  A
C383        C390   1.453       .  S
C384        C385   1.399       .  A
C385        C386   1.400       .  A
C385        C388   1.455       .  S
C386        C389   1.448       .  S
C387        N394   1.157       .  T
C388        N393   1.158       .  T
C389        N925   1.157       .  T
C390        N392   1.157       .  T
N391        C923   1.157       .  T
C395        C396   1.424       .  A
C395        C400   1.423       .  A
C396        C397   1.422       .  A
C396        C401   1.451       .  S
C397        C398   1.418       .  A
C397        C404   1.449       .  S
C398        C399   1.414       .  A
C399        C400   1.408       .  A
C399        C402   1.453       .  S
C400        C403   1.453       .  S
C401        N408   1.158       .  T
C402        N941   1.157       .  T
C403        N405   1.157       .  T
C404        N406   1.158       .  T
N407        C936   1.157       .  T
C409        C539   1.506   1_554  S
C409        C410   1.419       .  A
C409        C414   1.422       .  A
C410        C411   1.400       .  A
C410        C415   1.447       .  S
C411        C412   1.401       .  A
C411        C418   1.452       .  S
C412        C413   1.407       .  A
C413        C414   1.412       .  A
C413        C416   1.452       .  S
C414        C417   1.447       .  S
C415        N956   1.156   1_554  T
C416        N421   1.157       .  T
C417        N419   1.157       .  T
C418        N420   1.157       .  T
N422        C949   1.156       .  T
C423        C538   1.538       .  S
C423        C424   1.428       .  A
C423        C428   1.418       .  A
C424        C425   1.421       .  A
C424        C429   1.444       .  S
C425        C426   1.420       .  A
C425        C432   1.456       .  S
C426        C427   1.423       .  A
C427        C428   1.415       .  A
C427        C430   1.451       .  S
C428        C965   1.452       .  S
C429        N436   1.157       .  T
C430        N435   1.157       .  T
C431        C962   1.452       .  S
C431        N433   1.157   1_556  T
C432        N434   1.158       .  T
C437        C438   1.426       .  A
C437        C442   1.422       .  A
C438        C439   1.413       .  A
C438        C443   1.445       .  S
C439        C440   1.404       .  A
C439        C446   1.454       .  S
C440        C441   1.405       .  A
C441        C442   1.403       .  A
C441        C444   1.454       .  S
C442        C445   1.451   1_554  S
C443        N450   1.157       .  T
C444        N449   1.158       .  T
C445        N981   1.157       .  T
C446        N448   1.157       .  T
N447        C979   1.157       .  T
C451        C452   1.407       .  A
C451        C456   1.415       .  A
C452        C453   1.401       .  A
C452        C457   1.448       .  S
C453        C454   1.413       .  A
C453        C460   1.450       .  S
C454        C537   1.491       .  S
C454        C455   1.412       .  A
C455        C456   1.413       .  A
C455        C992   1.448       .  S
C456        C459   1.451       .  S
C457        N464   1.155       .  T
C458        C989   1.448       .  S
C458        N463   1.158       .  T
C459        N461   1.157       .  T
C460        N462   1.157       .  T
C465        C466   1.424       .  A
C465        C470   1.416       .  A
C466        C467   1.424       .  A
C466        C471   1.451       .  S
C467        C468   1.418       .  A
C467        C474   1.448       .  S
C468        C469   1.417       .  A
C469        C470   1.410       .  A
C469        C472   1.451       .  S
C470        C473   1.452       .  S
C471        N478   1.158       .  T
C472        N477   1.157       .  T
C473        N475   1.157       .  T
C474        N476   1.158       .  T
C479        C536   1.521       .  S
C479        C480   1.418       .  A
C479        C484   1.421       .  A
C480        C481   1.411       .  A
C480       C1019   1.450       .  S
C481        C482   1.422       .  A
C481        C488   1.453       .  S
C482        C483   1.422       .  A
C483        C484   1.417       .  A
C483        C486   1.456       .  S
C484        C487   1.444       .  S
C485       C1014   1.450       .  S
C485        N492   1.157   1_556  T
C486        N491   1.158       .  T
C487        N489   1.157       .  T
C488        N490   1.158       .  T
C493        C494   1.405       .  A
C493        C498   1.410       .  A
C494        C495   1.407       .  A
C494        C499   1.448       .  S
C495        C496   1.418       .  A
C495        C502   1.447       .  S
C496        C497   1.420       .  A
C497        C498   1.417       .  A
C497        C500   1.445       .  S
C498        C501   1.450       .  S
C499        N506   1.157       .  T
C500        N505   1.157       .  T
C501        N503   1.157       .  T
C502        N504   1.156       .  T
C507        C508   1.421       .  A
C507        C512   1.422       .  A
C508        C509   1.418       .  A
C508        C513   1.453       .  S
C509        C510   1.421       .  A
C509        C516   1.445       .  S
C510        C535   1.519       .  S
C510        C511   1.417       .  A
C511        C512   1.411       .  A
C511       C1048   1.452       .  S
C512        C515   1.453       .  S
C513        N520   1.157       .  T
C514       C1045   1.452       .  S
C514        N519   1.157       .  T
C515        N517   1.157       .  T
C516        N518   1.157       .  T
C521        C522   1.415       .  A
C521        C526   1.418       .  A
C522        C523   1.406       .  A
C522        C527   1.447       .  S
C523        C524   1.411       .  A
C523        C530   1.450       .  S
C524        C525   1.413       .  A
C525        C526   1.420       .  A
C525        C528   1.449       .  S
C526        C529   1.446       .  S
C527        N534   1.156       .  T
C528        N533   1.157       .  T
C529        N531   1.157       .  T
C530        N532   1.157       .  T
C535       C1055   1.512   1_554  S
C536       C1030   1.513       .  S
C537       C1002   1.520       .  S
C537        C538   1.378       .  D
C538        C971   1.515       .  S
C539        C932   1.518       .  S
C539        C540   1.377   1_556  D
C540        C915   1.512   1_554  S
C541        C859   1.521       .  S
C541        C542   1.377       .  D
C542        C887   1.520       .  S
C543        C820   1.514   1_554  S
C544        C806   1.544       .  S
C545        C733   1.527   1_554  S
C545        C546   1.379       .  D
C546        C764   1.511   1_554  S
O547       Zr559   2.424       .  S
O547        C549   1.284       .  A
O548       Zr585   2.416       .  S
O548        C549   1.284       .  A
C549        C918   1.464       .  S
O550       Zr562   2.448   1_455  S
O550        C552   1.289       .  A
O551       Zr586   2.429       .  S
O551        C552   1.287       .  A
C552        C761   1.514       .  S
O553       Zr562   2.478       .  S
O553        C555   1.295       .  A
O554       Zr585   2.410       .  S
O554        C555   1.284       .  A
C555       C1058   1.497       .  S
O556       Zr559   2.452   1_455  S
O556        C558   1.291       .  A
O557       Zr586   2.431       .  S
O557        C558   1.287       .  A
C558        C817   1.507       .  S
Zr559       O560   2.435       .  S
Zr559       O561   2.434       .  S
Zr559       O565   2.376       .  S
Zr559       O566   2.364   1_655  S
Zr559       O589   2.364   1_655  S
Zr559       O591   2.374       .  S
O560        H603   0.990       .  S
O561        H602   0.990       .  S
O561        H606   0.990       .  S
Zr562       O563   2.436       .  S
Zr562       O564   2.434       .  S
Zr562       O566   2.383   1_655  S
Zr562       O565   2.366       .  S
Zr562       O590   2.362       .  S
Zr562       O592   2.375   1_655  S
O563        H604   0.990   1_655  S
O563        H607   0.990       .  S
O564        H597   0.990       .  S
O565       Zr585   2.386       .  S
O566       Zr586   2.389       .  S
O566        H593   0.966       .  S
O567       Zr579   2.432   1_455  S
O567        C569   1.286       .  A
O568       Zr586   2.431       .  S
O568        C569   1.288       .  A
C569        C831   1.492       .  S
O570       Zr582   2.431       .  S
O570        C572   1.285       .  A
O571       Zr585   2.433       .  S
O571        C572   1.288       .  A
C572       C1041   1.515       .  S
O573       Zr582   2.428   1_455  S
O573        C575   1.284       .  A
O574       Zr586   2.420       .  S
O574        C575   1.285       .  A
C575        C775   1.469       .  S
O576       Zr579   2.441       .  S
O576        C578   1.287       .  A
O577       Zr585   2.429       .  S
O577        C578   1.287       .  A
C578        C904   1.515       .  S
Zr579       O580   2.436       .  S
Zr579       O581   2.432       .  S
Zr579       O587   2.372   1_655  S
Zr579       O588   2.373       .  S
Zr579       O591   2.358       .  S
Zr579       O589   2.374   1_655  S
O580        H600   0.990   1_655  S
O580        H605   0.990   1_655  S
O581        H601   0.990   1_655  S
Zr582       O583   2.434       .  S
Zr582       O584   2.435       .  S
Zr582       O588   2.378       .  S
Zr582       O587   2.370   1_655  S
Zr582       O592   2.365   1_655  S
Zr582       O590   2.364       .  S
O583        H599   0.990       .  S
O584        H598   0.990   1_655  S
O584        H608   0.990   1_655  S
Zr585       O588   2.378       .  S
Zr585       O590   2.378       .  S
Zr585       O591   2.381       .  S
Zr586       O587   2.386       .  S
Zr586       O589   2.375       .  S
Zr586       O592   2.383       .  S
O587        H595   0.966       .  S
O590        H594   0.966       .  S
O591        H596   0.966       .  S
O609       Zr621   2.419       .  S
O609        C611   1.282       .  A
O610       Zr647   2.425       .  S
O610        C611   1.286       .  A
C611        C974   1.470       .  S
O612       Zr624   2.473       .  S
O612        C614   1.294       .  A
O613       Zr648   2.413       .  S
O613        C614   1.285       .  A
C614        C862   1.490       .  S
O615       Zr624   2.468       .  S
O615        C617   1.294       .  A
O616       Zr647   2.423       .  S
O616        C617   1.287       .  A
C617       C1027   1.490       .  S
O618       Zr621   2.405       .  S
O618        C620   1.280       .  A
O619       Zr648   2.447       .  S
O619        C620   1.292       .  A
C620        C803   1.504       .  S
Zr621       O622   2.433       .  S
Zr621       O623   2.437       .  S
Zr621       O627   2.361       .  S
Zr621       O628   2.367       .  S
Zr621       O651   2.373       .  S
Zr621       O653   2.360       .  S
O622        H665   0.990       .  S
O623        H664   0.990       .  S
O623        H668   0.990       .  S
Zr624       O625   2.436       .  S
Zr624       O626   2.434       .  S
Zr624       O628   2.378       .  S
Zr624       O627   2.373       .  S
Zr624       O652   2.372       .  S
Zr624       O654   2.369       .  S
O625        H666   0.990       .  S
O625        H669   0.990       .  S
O626        H659   0.990       .  S
O627       Zr647   2.380       .  S
O628       Zr648   2.385       .  S
O628        H655   0.966       .  S
O629       Zr641   2.446       .  S
O629        C631   1.288       .  A
O630       Zr648   2.447       .  S
O630        C631   1.290       .  A
C631        C792   1.491       .  S
O632       Zr644   2.438       .  S
O632        C634   1.286       .  A
O633       Zr647   2.418       .  S
O633        C634   1.285       .  A
C634       C1016   1.515       .  S
O635       Zr644   2.432       .  S
O635        C637   1.288       .  A
O636       Zr648   2.429       .  S
O636        C637   1.287       .  A
C637        C848   1.499       .  S
O638       Zr641   2.444       .  S
O638        C640   1.287       .  A
O639       Zr647   2.443       .  S
O639        C640   1.291       .  A
C640        C960   1.519       .  S
Zr641       O642   2.436       .  S
Zr641       O643   2.433       .  S
Zr641       O649   2.368       .  S
Zr641       O650   2.373       .  S
Zr641       O653   2.379       .  S
Zr641       O651   2.374       .  S
O642        H662   0.990       .  S
O642        H667   0.989       .  S
O643        H663   0.990       .  S
Zr644       O645   2.435       .  S
Zr644       O646   2.429       .  S
Zr644       O650   2.374       .  S
Zr644       O649   2.373       .  S
Zr644       O654   2.368       .  S
Zr644       O652   2.354       .  S
O645        H661   0.990       .  S
O646        H660   0.990       .  S
O646        H670   0.989       .  S
Zr647       O650   2.378       .  S
Zr647       O652   2.384       .  S
Zr647       O653   2.379       .  S
Zr648       O649   2.385       .  S
Zr648       O651   2.379       .  S
Zr648       O654   2.386       .  S
O649        H657   0.966       .  S
O652        H656   0.966       .  S
O653        H658   0.966       .  S
O671       Zr683   2.437   1_545  S
O671        C673   1.286       .  A
O672       Zr709   2.405       .  S
O672        C673   1.283       .  A
C673        C946   1.465       .  S
O674       Zr686   2.440       .  S
O674        C676   1.287       .  A
O675       Zr710   2.447       .  S
O675        C676   1.291       .  A
C676        C750   1.520       .  S
O677       Zr686   2.457   1_545  S
O677        C679   1.293       .  A
O678       Zr709   2.444       .  S
O678        C679   1.289       .  A
C679        C999   1.516       .  S
O680       Zr683   2.442       .  S
O680        C682   1.289       .  A
O681       Zr710   2.450       .  S
O681        C682   1.291       .  A
C682        C890   1.521       .  S
Zr683       O684   2.434       .  S
Zr683       O685   2.435       .  S
Zr683       O689   2.371   1_565  S
Zr683       O690   2.374       .  S
Zr683       O713   2.366       .  S
Zr683       O715   2.366   1_565  S
O684        H727   0.990   1_565  S
O685        H726   0.989   1_565  S
O685        H730   0.990   1_565  S
Zr686       O687   2.432       .  S
Zr686       O688   2.429       .  S
Zr686       O690   2.381       .  S
Zr686       O689   2.364   1_565  S
Zr686       O714   2.362   1_565  S
Zr686       O716   2.363       .  S
O687        H728   0.990       .  S
O687        H731   0.990       .  S
O688        H721   0.989       .  S
O689       Zr709   2.386       .  S
O690       Zr710   2.395       .  S
O690        H717   0.966       .  S
O691       Zr703   2.442       .  S
O691        C693   1.287       .  A
O692       Zr710   2.449       .  S
O692        C693   1.291       .  A
C693        C873   1.487       .  S
O694       Zr706   2.426   1_545  S
O694        C696   1.284       .  A
O695       Zr709   2.423       .  S
O695        C696   1.287       .  A
C696        C985   1.478       .  S
O697       Zr706   2.426       .  S
O697        C699   1.284       .  A
O698       Zr710   2.437       .  S
O698        C699   1.289       .  A
C699        C736   1.474       .  S
O700       Zr703   2.440   1_545  S
O700        C702   1.288       .  A
O701       Zr709   2.449       .  S
O701        C702   1.290       .  A
C702        C929   1.521       .  S
Zr703       O704   2.435       .  S
Zr703       O705   2.434       .  S
Zr703       O711   2.376       .  S
Zr703       O712   2.377   1_565  S
Zr703       O715   2.365   1_565  S
Zr703       O713   2.366       .  S
O704        H724   0.990       .  S
O704        H729   0.990       .  S
O705        H725   0.990       .  S
Zr706       O707   2.432       .  S
Zr706       O708   2.436       .  S
Zr706       O712   2.374   1_565  S
Zr706       O711   2.373       .  S
Zr706       O716   2.363       .  S
Zr706       O714   2.364   1_565  S
O707        H723   0.990   1_565  S
O708        H722   0.990       .  S
O708        H732   0.990       .  S
Zr709       O712   2.383       .  S
Zr709       O714   2.379       .  S
Zr709       O715   2.385       .  S
Zr710       O711   2.392       .  S
Zr710       O713   2.378       .  S
Zr710       O716   2.381       .  S
O711        H719   0.966       .  S
O714        H718   0.966       .  S
O715        H720   0.965       .  S
C733        C734   1.436       .  A
C733        C738   1.421       .  A
C734        C735   1.425       .  A
C734        C739   1.444       .  S
C735        C736   1.407       .  A
C735        C742   1.449       .  S
C736        C737   1.390       .  A
C737        C738   1.385       .  A
C737        C740   1.445       .  S
C738        C741   1.445   1_556  S
C739        N746   1.157       .  T
C740        N745   1.156       .  T
C742        N744   1.157       .  T
C747        C748   1.413       .  A
C747        C752   1.420       .  A
C748        C749   1.409       .  A
C748        C753   1.454       .  S
C749        C750   1.425       .  A
C749        C756   1.452       .  S
C750        C751   1.423       .  A
C751        C752   1.421       .  A
C751        C754   1.451       .  S
C752        C755   1.449       .  S
C753        N760   1.157       .  T
C754        N759   1.157       .  T
C755        N757   1.157       .  T
C756        N758   1.157       .  T
C761        C762   1.423       .  A
C761        C766   1.421       .  A
C762        C763   1.418       .  A
C762        C767   1.450       .  S
C763        C764   1.416       .  A
C763        C770   1.449       .  S
C764        C765   1.415       .  A
C765        C766   1.407       .  A
C765        C768   1.452       .  S
C766        C769   1.453       .  S
C767        N774   1.158       .  T
C768        N773   1.157   1_556  T
C769        N771   1.157       .  T
C770        N772   1.158       .  T
C775        C776   1.401       .  A
C775        C780   1.407       .  A
C776        C777   1.400       .  A
C776        C781   1.453       .  S
C777        C778   1.422       .  A
C777        C784   1.450       .  S
C778        C779   1.425       .  A
C779        C780   1.414       .  A
C779        C782   1.447       .  S
C780        C783   1.452       .  S
C781        N788   1.157       .  T
C782        N787   1.157       .  T
C783        N785   1.157       .  T
C789        C790   1.423       .  A
C789        C794   1.426       .  A
C790        C791   1.415       .  A
C790        C795   1.450   1_556  S
C791        C792   1.407       .  A
C791        C798   1.450       .  S
C792        C793   1.406       .  A
C793        C794   1.419       .  A
C793        C796   1.453       .  S
C794        C797   1.444       .  S
C796        N801   1.157       .  T
C797        N799   1.157       .  T
C798        N800   1.157       .  T
C803        C804   1.411       .  A
C803        C808   1.421       .  A
C804        C805   1.418       .  A
C804        C809   1.458       .  S
C805        C806   1.433       .  A
C805        C812   1.440       .  S
C806        C807   1.415       .  A
C807        C808   1.409       .  A
C807        C810   1.451       .  S
C808        C811   1.452       .  S
C809        N816   1.158       .  T
C811        N813   1.157       .  T
C812        N814   1.158       .  T
C817        C818   1.418       .  A
C817        C822   1.413       .  A
C818        C819   1.418       .  A
C818        C823   1.446       .  S
C819        C820   1.415       .  A
C819        C826   1.447       .  S
C820        C821   1.421       .  A
C821        C822   1.410       .  A
C821        C824   1.449       .  S
C822        C825   1.452       .  S
C823        N830   1.155       .  T
C824        N829   1.157       .  T
C825        N827   1.157       .  T
C826        N828   1.157       .  T
C831        C832   1.413       .  A
C831        C836   1.418       .  A
C832        C833   1.409       .  A
C832        C837   1.452       .  S
C833        C834   1.418       .  A
C833        C840   1.449       .  S
C834        C835   1.411       .  A
C835        C836   1.413       .  A
C835        C838   1.449       .  S
C836        C839   1.450       .  S
C837        N844   1.158       .  T
C838        N843   1.158       .  T
C839        N841   1.157       .  T
C840        N842   1.157       .  T
C845        C846   1.421       .  A
C845        C850   1.414       .  A
C846        C847   1.416       .  A
C846        C851   1.447       .  S
C847        C848   1.417       .  A
C847        C854   1.452       .  S
C848        C849   1.412       .  A
C849        C850   1.402       .  A
C849        C852   1.450       .  S
C850        C853   1.451       .  S
C851        N858   1.157       .  T
C852        N857   1.157       .  T
C853        N855   1.157       .  T
C854        N856   1.158       .  T
C859        C860   1.423       .  A
C859        C864   1.421       .  A
C860        C861   1.421       .  A
C860        C865   1.446       .  S
C861        C862   1.410       .  A
C861        C868   1.451       .  S
C862        C863   1.407       .  A
C863        C864   1.408       .  A
C863        C866   1.452       .  S
C864        C867   1.449       .  S
C865        N872   1.157       .  T
C866        N871   1.157       .  T
C867        N869   1.157       .  T
C868        N870   1.157       .  T
C873        C874   1.399       .  A
C873        C878   1.409       .  A
C874        C875   1.395       .  A
C874        C879   1.436       .  S
C875        C876   1.413       .  A
C875        C882   1.446       .  S
C876        C877   1.429       .  A
C877        C878   1.425       .  A
C877        C880   1.444       .  S
C878        C881   1.450       .  S
C879        N886   1.152       .  T
C880        N885   1.157       .  T
C881        N883   1.157       .  T
C887        C888   1.414       .  A
C887        C892   1.420       .  A
C888        C889   1.411       .  A
C888        C893   1.453       .  S
C889        C890   1.422       .  A
C889        C896   1.450       .  S
C890        C891   1.422       .  A
C891        C892   1.422       .  A
C891        C894   1.451       .  S
C892        C895   1.447       .  S
C893        N900   1.157       .  T
C894        N899   1.157       .  T
C895        N897   1.157       .  T
C896        N898   1.157       .  T
C901        C902   1.414       .  A
C901        C906   1.419       .  A
C902        C903   1.408       .  A
C902        C907   1.452       .  S
C903        C904   1.422       .  A
C903        C910   1.452       .  S
C904        C905   1.423       .  A
C905        C906   1.419       .  A
C905        C908   1.451       .  S
C906        C909   1.449       .  S
C908        N913   1.157       .  T
C909        N911   1.157       .  T
C910        N912   1.157       .  T
C915        C916   1.426       .  A
C915        C920   1.425       .  A
C916        C917   1.413       .  A
C916        C921   1.446       .  S
C917        C918   1.405       .  A
C917        C924   1.453       .  S
C918        C919   1.399       .  A
C919        C920   1.400       .  A
C919        C922   1.455       .  S
C920        C923   1.448   1_556  S
C921        N928   1.157       .  T
C922        N927   1.158       .  T
C924        N926   1.157       .  T
C929        C930   1.424       .  A
C929        C934   1.423       .  A
C930        C931   1.422       .  A
C930        C935   1.451       .  S
C931        C932   1.418       .  A
C931        C938   1.449       .  S
C932        C933   1.414       .  A
C933        C934   1.408       .  A
C933        C936   1.453       .  S
C934        C937   1.453       .  S
C935        N942   1.158       .  T
C937        N939   1.157       .  T
C938        N940   1.158       .  T
C943        C944   1.419       .  A
C943        C948   1.422       .  A
C944        C945   1.400       .  A
C944        C949   1.447       .  S
C945        C946   1.401       .  A
C945        C952   1.452       .  S
C946        C947   1.407       .  A
C947        C948   1.412       .  A
C947        C950   1.452       .  S
C948        C951   1.447       .  S
C950        N955   1.157       .  T
C951        N953   1.157       .  T
C952        N954   1.157       .  T
C957        C958   1.428       .  A
C957        C962   1.418       .  A
C958        C959   1.421       .  A
C958        C963   1.444       .  S
C959        C960   1.420       .  A
C959        C966   1.456       .  S
C960        C961   1.423       .  A
C961        C962   1.415       .  A
C961        C964   1.451       .  S
C963        N970   1.157       .  T
C964        N969   1.157       .  T
C965        N967   1.157       .  T
C966        N968   1.158       .  T
C971        C972   1.426       .  A
C971        C976   1.422       .  A
C972        C973   1.413       .  A
C972        C977   1.445       .  S
C973        C974   1.404       .  A
C973        C980   1.454       .  S
C974        C975   1.405       .  A
C975        C976   1.403       .  A
C975        C978   1.454       .  S
C976        C979   1.451       .  S
C977        N984   1.157       .  T
C978        N983   1.158       .  T
C980        N982   1.157       .  T
C985        C986   1.407       .  A
C985        C990   1.415       .  A
C986        C987   1.401       .  A
C986        C991   1.448       .  S
C987        C988   1.413       .  A
C987        C994   1.450       .  S
C988        C989   1.412       .  A
C989        C990   1.413       .  A
C990        C993   1.451       .  S
C991        N998   1.155       .  T
C992        N997   1.158       .  T
C993        N995   1.157       .  T
C994        N996   1.157       .  T
C999       C1000   1.424       .  A
C999       C1004   1.416       .  A
C1000      C1001   1.424       .  A
C1000      C1005   1.451       .  S
C1001      C1002   1.418       .  A
C1001      C1008   1.448       .  S
C1002      C1003   1.417       .  A
C1003      C1004   1.410       .  A
C1003      C1006   1.451       .  S
C1004      C1007   1.452       .  S
C1005      N1012   1.158       .  T
C1006      N1011   1.157       .  T
C1007      N1009   1.157       .  T
C1008      N1010   1.158       .  T
C1013      C1014   1.418       .  A
C1013      C1018   1.421       .  A
C1014      C1015   1.411       .  A
C1015      C1016   1.422       .  A
C1015      C1022   1.453       .  S
C1016      C1017   1.422       .  A
C1017      C1018   1.417       .  A
C1017      C1020   1.456       .  S
C1018      C1021   1.444       .  S
C1019      N1026   1.157       .  T
C1020      N1025   1.158       .  T
C1021      N1023   1.157       .  T
C1022      N1024   1.158       .  T
C1027      C1028   1.405       .  A
C1027      C1032   1.410       .  A
C1028      C1029   1.407       .  A
C1028      C1033   1.448       .  S
C1029      C1030   1.418       .  A
C1029      C1036   1.447       .  S
C1030      C1031   1.420       .  A
C1031      C1032   1.418       .  A
C1031      C1034   1.445       .  S
C1032      C1035   1.450       .  S
C1033      N1040   1.157       .  T
C1034      N1039   1.157       .  T
C1035      N1037   1.157       .  T
C1036      N1038   1.156       .  T
C1041      C1042   1.421       .  A
C1041      C1046   1.422       .  A
C1042      C1043   1.418       .  A
C1042      C1047   1.453       .  S
C1043      C1044   1.421       .  A
C1043      C1050   1.445       .  S
C1044      C1045   1.417       .  A
C1045      C1046   1.411       .  A
C1046      C1049   1.453       .  S
C1047      N1054   1.157       .  T
C1048      N1053   1.157       .  T
C1049      N1051   1.157       .  T
C1050      N1052   1.157       .  T
C1055      C1056   1.415       .  A
C1055      C1060   1.418       .  A
C1056      C1057   1.406       .  A
C1056      C1061   1.447       .  S
C1057      C1058   1.411       .  A
C1057      C1064   1.450       .  S
C1058      C1059   1.413       .  A
C1059      C1060   1.420       .  A
C1059      C1062   1.449       .  S
C1060      C1063   1.446       .  S
C1061      N1068   1.156       .  T
C1062      N1067   1.157       .  T
C1063      N1065   1.157       .  T
C1064      N1066   1.157       .  T
