geometry optimzed in LAMMPS
_audit_creation_date              2020-11-30 
_audit_creation_method            'lammps2cif' 
_symmetry_space_group_name_H-M    'P1' 
_symmetry_Int_Tables_number       1 
_symmetry_cell_setting            triclinic 
loop_ 
_symmetry_equiv_pos_as_xyz 
  x,y,z 
_cell_length_a                    34.93621398 
_cell_length_b                    34.93378411348505 
_cell_length_c                    31.480316085053826 
_cell_angle_alpha                 73.24666365730019 
_cell_angle_beta                  73.42323513627925 
_cell_angle_gamma                 95.35306543647731 
loop_ 
_atom_site_label 
_atom_site_type_symbol 
_atom_site_fract_x 
_atom_site_fract_y 
_atom_site_fract_z 
_atom_site_charge 
N1          N  0.13845002  0.96134534  0.15416349     0.00700
C2          C  0.19479929  0.48990970  0.15127407     0.03300
C3          C  0.22026467  0.49571794  0.10610529    -0.19600
C4          C  0.19571685  0.49582097  0.07857079    -0.19800
C5          C  0.13750270  0.95894314  0.11210387     0.03200
H6          H  0.25305610  0.49955730  0.09393951     0.17000
H7          H  0.20570413  0.49972883  0.04145647     0.17000
N8          N  0.29963074  0.48674727  0.23378261     0.00700
C9          C  0.26077241  0.48709555  0.23346364     0.03300
C10         C  0.23543295  0.48218288  0.27835382    -0.19600
C11         C  0.25951230  0.47818010  0.30676323    -0.19800
C12         C  0.29869497  0.48099492  0.27869647     0.03200
H13         H  0.20291185  0.48072500  0.28992856     0.17000
H14         H  0.24938162  0.47260292  0.34421312     0.17000
N15         N  0.45878197  0.14981255  0.16144428     0.00700
C16         C  0.45573562  0.18833995  0.15931659     0.03300
C17         C  0.45124707  0.20922453  0.11665526    -0.19600
C18         C  0.45216951  0.18202558  0.09214360    -0.19800
C19         C  0.45699233  0.14611121  0.12095103     0.03200
H20         H  0.44906326  0.24089154  0.10368627     0.17000
H21         H  0.45109773  0.18824082  0.05683289     0.17000
N22         N  0.46934918  0.29890507  0.22604578     0.00700
C23         C  0.47339920  0.26138246  0.22465641     0.03300
C24         C  0.48872109  0.24192119  0.25972166    -0.19600
C25         C  0.49401943  0.26906041  0.28289499    -0.19800
C26         C  0.48184530  0.30352289  0.26091342     0.03200
H27         H  0.49602405  0.21179900  0.26741126     0.17000
H28         H  0.50542641  0.26422646  0.31218588     0.17000
O29         O  0.47562760  0.01011886  0.12450621    -0.76000
O30         O  0.41663024  0.48934910  0.33296626    -0.76000
O31         O  0.00057621  0.05162457  0.28298302    -0.76000
O32         O  0.38434160  0.47085525  0.09403744    -0.75900
O33         O  0.47347564  0.01947315  0.24339888    -0.76100
O34         O  0.42812566  0.48192101  0.12743504    -0.76000
O35         O  0.39969702  0.47026802  0.00780174    -0.76000
O36         O  0.98138425  0.06013877  0.04349239    -0.76000
C37         C  0.48063586  0.04409763  0.09227782     1.13700
C38         C  0.38857387  0.46115592  0.33902972     1.13600
C39         C  0.48015976  0.05302832  0.25122276     1.13700
C40         C  0.39281742  0.48121834  0.12547540     1.13600
O41         O  0.47721996  0.43180874  0.14512824    -0.76000
O42         O  0.02164414  0.46900232  0.26695739    -0.76000
O43         O  0.04663117  0.01408204  0.03069692    -0.76000
O44         O  0.44188920  0.40309952  0.02522198    -0.76000
O45         O  0.45315194  0.42952791  0.29171201    -0.76000
O46         O  0.02549461  0.46511770  0.07969905    -0.76000
O47         O  0.43480138  0.40696742  0.11343429    -0.75900
O48         O  0.05951518  0.99695171  0.28260896    -0.76000
Co49       Co  0.47788662  0.46860928  0.08815475     1.51500
Co50       Co  0.47188676  0.47833890  0.30742995     1.51700
Co51       Co  0.00820603  0.03728821  0.99636974     1.51600
Co52       Co  0.41916110  0.44235681  0.05753725     1.51500
O53         O  0.46938302  0.49137071  0.02636761    -1.37900
C54         C  0.45403226  0.40219998  0.14364800     1.13700
C55         C  0.05709804  0.48738364  0.25713665     1.13700
C56         C  0.05850822  0.49048665  0.05956258     1.13700
C57         C  0.46029397  0.39484599  0.31104184     1.13700
C58         C  0.47900723  0.33886073  0.27454126    -0.09100
C59         C  0.47118064  0.36753016  0.28633161    -0.10700
C60         C  0.45224647  0.36185269  0.17278683    -0.09100
C61         C  0.45769769  0.33019089  0.19590599    -0.10700
C62         C  0.47473427  0.08989069  0.22094976    -0.09100
C63         C  0.46745294  0.11930734  0.19566983    -0.10700
C64         C  0.46490314  0.11076623  0.10871686    -0.09100
C65         C  0.47309964  0.07960499  0.10356712    -0.10700
C66         C  0.46081194  0.20526157  0.19546716    -0.12300
C67         C  0.46424126  0.24500831  0.18980142    -0.27400
H68         H  0.46327289  0.18424486  0.22705134     0.16800
H69         H  0.46079241  0.26620481  0.15895616     0.17800
C70         C  0.33235439  0.47556861  0.29716495    -0.09100
C71         C  0.35748175  0.46954915  0.31709819    -0.10700
C72         C  0.36137732  0.48847076  0.16195214    -0.09100
C73         C  0.33356400  0.48882155  0.19522393    -0.10700
C74         C  0.09098264  0.48147050  0.22220205    -0.09100
C75         C  0.12068464  0.48239168  0.19025258    -0.10700
C76         C  0.09259848  0.48733692  0.07697919    -0.09100
C77         C  0.12091798  0.48794106  0.09200404    -0.10700
C78         C  0.24747864  0.49041964  0.19152224    -0.12300
C79         C  0.20809027  0.48763293  0.19299374    -0.27400
H80         H  0.27109646  0.49474182  0.15859760     0.16800
H81         H  0.18439801  0.48301417  0.22596318     0.17300
N82         N  0.14917501  0.98133478  0.48955933     0.00700
C83         C  0.19201028  0.49747607  0.47845166     0.03300
C84         C  0.21419949  0.49948757  0.43312929    -0.19600
C85         C  0.18759434  0.50343115  0.40754531    -0.19800
C86         C  0.14591964  0.97611442  0.45025890     0.03200
H87         H  0.24605346  0.49835701  0.41960219     0.17000
H88         H  0.19436910  0.50574812  0.37105798     0.17000
N89         N  0.30011487  0.47551911  0.55273296     0.00700
C90         C  0.26221298  0.48241679  0.55530775     0.03300
C91         C  0.24285773  0.48533803  0.59908843    -0.19600
C92         C  0.27025172  0.48000701  0.62363005    -0.19800
C93         C  0.30515968  0.47403075  0.59409302     0.03200
H94         H  0.21247149  0.49093796  0.61202629     0.17000
H95         H  0.26524017  0.48065350  0.65895040     0.17000
N96         N  0.47141152  0.15856301  0.47930887     0.00700
C97         C  0.46797521  0.19557693  0.48363203     0.03300
C98         C  0.46304685  0.22107062  0.44339713    -0.19600
C99         C  0.46347526  0.19844151  0.41381684    -0.19800
C100        C  0.46871127  0.16032530  0.43696843     0.03200
H101        H  0.45926805  0.25242659  0.43606681     0.17000
H102        H  0.45975706  0.20846798  0.37962460     0.17000
N103        N  0.47258391  0.29083570  0.57481797     0.00700
C104        C  0.47461293  0.25402062  0.56923069     0.03300
C105        C  0.48384351  0.22845053  0.60637875    -0.19600
C106        C  0.48767225  0.25066357  0.63520539    -0.19800
C107        C  0.48056033  0.28863293  0.61484288     0.03200
H108        H  0.48824636  0.19739196  0.61198033     0.17000
H109        H  0.49535293  0.24041243  0.66704323     0.17000
O110        O  0.45055238  0.02917292  0.41510271    -0.76000
O111        O  0.44238524  0.46535783  0.59971679    -0.76000
O112        O  0.01481498  0.06020172  0.60976405    -0.76000
O113        O  0.38954677  0.42276611  0.44781778    -0.75900
O114        O  0.48887432  0.03051158  0.57987639    -0.76100
O115        O  0.41839708  0.48657355  0.42527365    -0.76000
O116        O  0.39115642  0.42489031  0.35887837    -0.76000
O117        O  0.00541280  0.05178342  0.37080898    -0.76000
C118        C  0.47545737  0.06222942  0.39242145     1.13700
C119        C  0.40784491  0.45854675  0.63065675     1.13600
C120        C  0.48782672  0.06651776  0.58101260     1.13700
C121        C  0.38803701  0.45851504  0.44878800     1.13600
O122        O  0.44844588  0.42007604  0.48039822    -0.76000
O123        O  0.02101235  0.50516975  0.58220950    -0.76000
O124        O  0.05247387  0.98844508  0.37093147    -0.76000
O125        O  0.45870852  0.38337485  0.35316533    -0.76000
O126        O  0.49202817  0.41884303  0.63300939    -0.76000
O127        O  0.01091184  0.50278066  0.43065053    -0.76000
O128        O  0.45553965  0.37789135  0.44052002    -0.75900
O129        O  0.06195222  0.99721990  0.62289469    -0.76000
Co130      Co  0.47172619  0.47141980  0.42421804     1.51500
Co131      Co  0.47465946  0.46949961  0.63797369     1.51700
Co132      Co  0.02406324  0.01651491  0.33053484     1.51600
Co133      Co  0.42733842  0.40590576  0.39804730     1.51500
O134        O  0.47644101  0.45558264  0.36903294    -1.37900
C135        C  0.45390540  0.38536915  0.47766913     1.13700
C136        C  0.05608423  0.50132102  0.58526421     1.13700
C137        C  0.04689648  0.50360207  0.40567307     1.13700
C138        C  0.47316723  0.38484758  0.66140019     1.13700
C139        C  0.48097236  0.32112133  0.63407100    -0.09100
C140        C  0.47913927  0.34930987  0.64867881    -0.10700
C141        C  0.45898116  0.35408137  0.51601391    -0.09100
C142        C  0.46488117  0.32530172  0.54411882    -0.10700
C143        C  0.48170431  0.09693678  0.54290614    -0.09100
C144        C  0.47686552  0.12467785  0.51278892    -0.10700
C145        C  0.46990967  0.12681511  0.41909300    -0.09100
C146        C  0.47115085  0.09783845  0.40571785    -0.10700
C147        C  0.46988293  0.20615971  0.52540080    -0.12300
C148        C  0.46967055  0.24382588  0.52822742    -0.27400
H149        H  0.47243079  0.18192600  0.55439043     0.16800
H150        H  0.46670423  0.26811839  0.49952425     0.17800
C151        C  0.34193652  0.46784373  0.60566871    -0.09100
C152        C  0.37222513  0.46325021  0.61649110    -0.10700
C153        C  0.35444288  0.46577030  0.48213445    -0.09100
C154        C  0.32896091  0.47056503  0.51417748    -0.10700
C155        C  0.08925257  0.50026456  0.54717484    -0.09100
C156        C  0.12006211  0.49977064  0.51826820    -0.10700
C157        C  0.08063388  0.50506965  0.42223398    -0.09100
C158        C  0.11309112  0.50532608  0.42811564    -0.10700
C159        C  0.24542696  0.48665591  0.51612028    -0.12300
C160        C  0.20751490  0.49298653  0.51865944    -0.27400
H161        H  0.26539022  0.48433870  0.48393381     0.16800
H162        H  0.18704935  0.49468343  0.55096012     0.17300
N163        N  0.15568054  0.01785515  0.81558712     0.00700
C164        C  0.19624616  0.49200067  0.82234731     0.03300
C165        C  0.21979666  0.49902568  0.77590510    -0.19600
C166        C  0.19356791  0.50294346  0.74991418    -0.19800
C167        C  0.15412115  0.02545632  0.77204982     0.03200
H168        H  0.25228910  0.50128396  0.76184581     0.17000
H169        H  0.20150943  0.50881105  0.71247649     0.17000
N170        N  0.30385752  0.47286670  0.89578900     0.00700
C171        C  0.26526805  0.47694088  0.89935406     0.03300
C172        C  0.24332044  0.47069797  0.94606714    -0.19600
C173        C  0.27006166  0.46223793  0.97120137    -0.19800
C174        C  0.30676439  0.46351719  0.93881659     0.03200
H175        H  0.21166597  0.47202942  0.96059584     0.17000
H176        H  0.26343835  0.45606580  0.00854782     0.17000
N177        N  0.46637385  0.15513745  0.84103092     0.00700
C178        C  0.46671616  0.19407244  0.84129200     0.03300
C179        C  0.45942886  0.21740942  0.80149888    -0.19600
C180        C  0.45482234  0.19219204  0.77621111    -0.19800
C181        C  0.45941529  0.15438514  0.80088073     0.03200
H182        H  0.45754871  0.24929307  0.79124025     0.17000
H183        H  0.44891505  0.20060813  0.74315451     0.17000
N184        N  0.48186160  0.30525382  0.90998021     0.00700
C185        C  0.48210358  0.26588868  0.91187903     0.03300
C186        C  0.48862445  0.24405736  0.95273801    -0.19600
C187        C  0.49233758  0.27087383  0.97663559    -0.19800
C188        C  0.48805712  0.30812849  0.94983140     0.03200
H189        H  0.49024384  0.21213671  0.96448148     0.17000
H190        H  0.49710819  0.26379203  0.01032602     0.17000
O191        O  0.44244551  0.03998244  0.74136777    -0.76000
O192        O  0.44507859  0.45672279  0.95246163    -0.76000
O193        O  0.98081191  0.07168009  0.95733240    -0.76000
O194        O  0.40441050  0.46197294  0.76156267    -0.75900
O195        O  0.45435507  0.02414996  0.95702636    -0.76100
O196        O  0.43733761  0.47234429  0.80994245    -0.76000
O197        O  0.40428984  0.44980191  0.67475418    -0.76000
O198        O  0.00938677  0.06282436  0.69788246    -0.76000
C199        C  0.46812176  0.07177083  0.73121696     1.13700
C200        C  0.40928872  0.46222929  0.97043410     1.13600
C201        C  0.47763662  0.05819180  0.94313920     1.13700
C202        C  0.40469798  0.46876627  0.79965027     1.13600
O203        O  0.49303482  0.42605715  0.78233154    -0.76000
O204        O  0.01960883  0.48738565  0.90750303    -0.76000
O205        O  0.05776403  0.99957383  0.70690239    -0.76000
O206        O  0.44704534  0.38229183  0.69932354    -0.76000
O207        O  0.50633846  0.42967958  0.99733823    -0.76000
O208        O  0.01758276  0.50312060  0.76928592    -0.76000
O209        O  0.44016213  0.38921636  0.78339153    -0.75900
O210        O  0.04244444  0.01923741  0.94260454    -0.76000
Co211      Co  0.47437422  0.47457914  0.75138948     1.51500
Co212      Co  0.49363897  0.48176661  0.96565611     1.51700
Co213      Co  0.03263235  0.02602913  0.66175424     1.51600
Co214      Co  0.43225537  0.42656244  0.72502198     1.51500
O215        O  0.49399382  0.46671362  0.69086365    -1.37900
C216        C  0.46881984  0.39302100  0.79950107     1.13700
C217        C  0.05232681  0.49246546  0.91771476     1.13700
C218        C  0.05316405  0.50026874  0.74693378     1.13700
C219        C  0.47821425  0.40051015  0.00603244     1.13700
C220        C  0.48764226  0.34325322  0.96575930    -0.09100
C221        C  0.48552023  0.36903561  0.98482287    -0.10700
C222        C  0.47261488  0.36138858  0.83903531    -0.09100
C223        C  0.47666670  0.33634473  0.87271025    -0.10700
C224        C  0.47257496  0.09320292  0.90835506    -0.09100
C225        C  0.46994383  0.12174709  0.87701540    -0.10700
C226        C  0.45943709  0.12083575  0.78248579    -0.09100
C227        C  0.46118709  0.09797398  0.75969647    -0.10700
C228        C  0.47404503  0.20954935  0.87839034    -0.12300
C229        C  0.47547283  0.24913660  0.87551770    -0.27400
H230        H  0.47834243  0.18793639  0.90831326     0.16800
H231        H  0.47133789  0.27057669  0.84545812     0.17800
C232        C  0.34437873  0.45808610  0.94735669    -0.09100
C233        C  0.37730971  0.45788861  0.95185700    -0.10700
C234        C  0.36782828  0.47496623  0.82842457    -0.09100
C235        C  0.33649884  0.47579082  0.85619257    -0.10700
C236        C  0.09029300  0.48885755  0.88847907    -0.09100
C237        C  0.12290615  0.48839037  0.86279289    -0.10700
C238        C  0.08585611  0.50039917  0.76514573    -0.09100
C239        C  0.11821077  0.50017417  0.77110989    -0.10700
C240        C  0.25005315  0.48559373  0.85905872    -0.12300
C241        C  0.21077044  0.48559806  0.86319960    -0.27400
H242        H  0.27236114  0.49103488  0.82476185     0.16800
H243        H  0.18829059  0.47979450  0.89753311     0.17300
N244        N  0.15552922  0.48638167  0.15183159     0.00700
C245        C  0.17743334  0.96129809  0.15394335     0.03300
C246        C  0.20089586  0.95779848  0.11197494    -0.19600
C247        C  0.17551592  0.95629405  0.08572166    -0.19800
C248        C  0.15617908  0.48995982  0.10758081     0.03200
H249        H  0.23306438  0.95731313  0.10073235     0.17000
H250        H  0.18406944  0.95456670  0.05059325     0.17000
N251        N  0.28625895  0.97755597  0.22734474     0.00700
C252        C  0.24752261  0.97773831  0.22666313     0.03300
C253        C  0.22469241  0.98647137  0.26551687    -0.19600
C254        C  0.25023062  0.99140214  0.29063723    -0.19800
C255        C  0.28769745  0.98556228  0.26667098     0.03200
H256        H  0.19305997  0.98927343  0.27492041     0.17000
H257        H  0.24231637  0.99840095  0.32299387     0.17000
N258        N  0.47860235  0.65290430  0.16499933     0.00700
C259        C  0.47567105  0.69132604  0.16370974     0.03300
C260        C  0.48428630  0.71590725  0.11729867    -0.19600
C261        C  0.49317682  0.69112010  0.08992906    -0.19800
C262        C  0.48968365  0.65283636  0.12073082     0.03200
H263        H  0.48463826  0.74820709  0.10421426     0.17000
H264        H  0.50139344  0.70008749  0.05211247     0.17000
N265        N  0.45733763  0.79521159  0.24309965     0.00700
C266        C  0.45996777  0.75666577  0.24464031     0.03300
C267        C  0.45553555  0.73308694  0.29029228    -0.19600
C268        C  0.44970444  0.75866187  0.31703767    -0.19800
C269        C  0.45092861  0.79649632  0.28661238     0.03200
H270        H  0.45627552  0.70101135  0.30320413     0.17000
H271        H  0.44479368  0.75043488  0.35432519     0.17000
O272        O  0.50074750  0.51808768  0.10086491    -0.76000
O273        O  0.40753606  0.00237908  0.31843490    -0.76000
O274        O  0.99776472  0.56043756  0.27825107    -0.76000
O275        O  0.37951596  0.92704439  0.12094575    -0.75900
O276        O  0.47551830  0.51667465  0.24893445    -0.76100
O277        O  0.40999551  0.99036225  0.10191044    -0.76000
O278        O  0.38050593  0.93930188  0.03020482    -0.76000
O279        O  0.99678472  0.55530082  0.04115529    -0.76000
C280        C  0.49484131  0.55351018  0.08203200     1.13700
C281        C  0.37595093  0.97612841  0.32943620     1.13600
C282        C  0.47686329  0.54844571  0.26110136     1.13700
C283        C  0.37967818  0.96190620  0.12562784     1.13600
O284        O  0.44615232  0.92389033  0.14387411    -0.76000
O285        O  0.01236944  0.96147883  0.27064819    -0.76000
O286        O  0.05976082  0.52022732  0.02548101    -0.76000
O287        O  0.43366194  0.88362032  0.01896380    -0.76000
O288        O  0.43816521  0.93286364  0.29689906    -0.76000
O289        O  0.01736066  0.95036302  0.06158404    -0.76000
O290        O  0.44200493  0.88044586  0.10504342    -0.75900
O291        O  0.06283393  0.51336307  0.27595790    -0.76000
Co292      Co  0.46501062  0.97652326  0.08984289     1.51500
Co293      Co  0.46064408  0.98413556  0.30604988     1.51700
Co294      Co  0.01197966  0.51663124  0.00423705     1.51600
Co295      Co  0.41175756  0.91037899  0.06717934     1.51500
O296        O  0.45778622  0.95959736  0.03914824    -1.37900
C297        C  0.44763757  0.88876966  0.13954483     1.13700
C298        C  0.04923290  0.97457735  0.26151569     1.13700
C299        C  0.04763587  0.97750719  0.05179392     1.13700
C300        C  0.43496945  0.89678656  0.32430177     1.13700
C301        C  0.44506411  0.83263112  0.29855980    -0.09100
C302        C  0.44046120  0.86370263  0.30675301    -0.10700
C303        C  0.45418111  0.85673017  0.17505480    -0.09100
C304        C  0.45698293  0.82789697  0.20506028    -0.10700
C305        C  0.47254041  0.58612981  0.23153785    -0.09100
C306        C  0.47358463  0.61832081  0.20366038    -0.10700
C307        C  0.49569723  0.61675171  0.10901635    -0.09100
C308        C  0.49695065  0.58510604  0.10154227    -0.10700
C309        C  0.46662060  0.70420636  0.20572478    -0.12300
C310        C  0.46683963  0.74321992  0.20309673    -0.27400
H311        H  0.46054454  0.68097008  0.23933697     0.16800
H312        H  0.47267320  0.76638657  0.16951127     0.17800
C313        C  0.32186376  0.98548182  0.28435004    -0.09100
C314        C  0.34694294  0.98349633  0.30444499    -0.10700
C315        C  0.34639943  0.96791451  0.16130052    -0.09100
C316        C  0.31893123  0.97211382  0.19234329    -0.10700
C317        C  0.07950279  0.96649692  0.22462771    -0.09100
C318        C  0.10581461  0.96365664  0.19152507    -0.10700
C319        C  0.07890922  0.96860918  0.07324422    -0.09100
C320        C  0.10386547  0.96319388  0.09348594    -0.10700
C321        C  0.23232043  0.97014396  0.18939208    -0.12300
C322        C  0.19269498  0.96691667  0.19200146    -0.27400
H323        H  0.25459218  0.96734612  0.15901140     0.16800
H324        H  0.17045367  0.96927509  0.22267809     0.17300
N325        N  0.15326677  0.50023964  0.48047655     0.00700
C326        C  0.18649495  0.97587207  0.49129114     0.03300
C327        C  0.20753344  0.96721584  0.45149526    -0.19600
C328        C  0.18141431  0.96725429  0.42545218    -0.19800
C329        C  0.15058972  0.50366664  0.43805409     0.03200
H330        H  0.23793606  0.96078078  0.44253880     0.17000
H331        H  0.18736816  0.96080840  0.39283638     0.17000
N332        N  0.28733894  0.97012381  0.57822382     0.00700
C333        C  0.24947427  0.97155271  0.57541736     0.03300
C334        C  0.22371027  0.97270534  0.61769940    -0.19600
C335        C  0.24681922  0.97225543  0.64671341    -0.19800
C336        C  0.28563811  0.97089001  0.62134663     0.03200
H337        H  0.19163762  0.97366325  0.62710890     0.17000
H338        H  0.23648671  0.97327441  0.68215148     0.17000
N339        N  0.45991241  0.64154612  0.51595145     0.00700
C340        C  0.45265464  0.67930991  0.51314931     0.03300
C341        C  0.44532553  0.69698687  0.47132725    -0.19600
C342        C  0.44863055  0.66886716  0.44800151    -0.19800
C343        C  0.45766580  0.63529405  0.47640241     0.03200
H344        H  0.43825840  0.72681029  0.45878392     0.17000
H345        H  0.44506888  0.67265719  0.41406829     0.17000
N346        N  0.45790252  0.79811015  0.56910371     0.00700
C347        C  0.45348326  0.75755187  0.57763050     0.03300
C348        C  0.44735829  0.73780467  0.62484979    -0.19600
C349        C  0.44778292  0.76770671  0.64552982    -0.19800
C350        C  0.45413481  0.80421875  0.61022765     0.03200
H351        H  0.44164995  0.70537205  0.64289849     0.17000
H352        H  0.44257390  0.76317184  0.68234897     0.17000
O353        O  0.47462472  0.50116860  0.46515223    -0.76000
O354        O  0.41632628  0.99773084  0.64351599    -0.76000
O355        O  0.01832930  0.56478484  0.61213221    -0.76000
O356        O  0.37303250  0.95235878  0.44287905    -0.75900
O357        O  0.45938963  0.52278496  0.63655157    -0.76100
O358        O  0.41840378  0.95706923  0.47880651    -0.76000
O359        O  0.37137866  0.94135698  0.35906375    -0.76000
O360        O  0.00042038  0.56010658  0.36732260    -0.76000
C361        C  0.47885624  0.53633123  0.43634746     1.13700
C362        C  0.38392851  0.97180711  0.66612773     1.13600
C363        C  0.48675449  0.55335925  0.61122213     1.13700
C364        C  0.38246094  0.95769156  0.47695044     1.13600
O365        O  0.48411411  0.92122996  0.43625022    -0.76000
O366        O  0.01948350  0.00003052  0.58285009    -0.76000
O367        O  0.05440096  0.50343824  0.36445940    -0.76000
O368        O  0.42682519  0.88827126  0.36808056    -0.76000
O369        O  0.45658366  0.94614790  0.60379241    -0.76000
O370        O  0.01057270  0.99330370  0.43528266    -0.76000
O371        O  0.42063951  0.88993660  0.45591549    -0.75900
O372        O  0.06312510  0.49906014  0.62252783    -0.76000
Co373      Co  0.46911985  0.97569354  0.42192958     1.51500
Co374      Co  0.47020505  0.98022318  0.63691607     1.51700
Co375      Co  0.02339552  0.52804521  0.32524914     1.51600
Co376      Co  0.40093367  0.92089269  0.40468910     1.51500
O377        O  0.45183489  0.96498826  0.37274437    -1.37900
C378        C  0.45604595  0.89028946  0.45899643     1.13700
C379        C  0.05459868  0.99698687  0.58634310     1.13700
C380        C  0.04525023  0.98862190  0.41211699     1.13700
C381        C  0.45056464  0.91162031  0.63518025     1.13700
C382        C  0.45311792  0.84310898  0.61681460    -0.09100
C383        C  0.45163005  0.87539624  0.62292690    -0.10700
C384        C  0.46228318  0.85629330  0.49310994    -0.09100
C385        C  0.46164336  0.82857373  0.52681753    -0.10700
C386        C  0.47696435  0.58779158  0.58139537    -0.09100
C387        C  0.46899268  0.61375860  0.55231021    -0.10700
C388        C  0.46490058  0.59914097  0.46473827    -0.09100
C389        C  0.47132143  0.56971977  0.45325384    -0.10700
C390        C  0.45295170  0.69824809  0.54948640    -0.12300
C391        C  0.45291983  0.73808135  0.54186285    -0.27400
H392        H  0.45429567  0.67900896  0.58272392     0.16800
H393        H  0.45328329  0.75755884  0.50792540     0.17800
C394        C  0.31986114  0.97232829  0.63799441    -0.09100
C395        C  0.34865309  0.97368530  0.65167213    -0.10700
C396        C  0.35100309  0.96355283  0.51426707    -0.09100
C397        C  0.32190519  0.96716218  0.54372069    -0.10700
C398        C  0.08717060  0.99325021  0.54961363    -0.09100
C399        C  0.11701484  0.98840803  0.52295411    -0.10700
C400        C  0.07790043  0.98357125  0.43066141    -0.09100
C401        C  0.10941830  0.97922434  0.43804286    -0.10700
C402        C  0.23760049  0.97160890  0.53355118    -0.12300
C403        C  0.20053357  0.97729747  0.53117077    -0.27400
H404        H  0.25978672  0.96680244  0.50436854     0.16800
H405        H  0.17882732  0.98304961  0.55993004     0.17300
N406        N  0.15706917  0.49140283  0.82479788     0.00700
C407        C  0.19491292  0.01876868  0.81316598     0.03300
C408        C  0.21876843  0.02741851  0.76657741    -0.19600
C409        C  0.19255136  0.03148946  0.74041684    -0.19800
C410        C  0.15545385  0.49814179  0.78141827     0.03200
H411        H  0.25137269  0.03001220  0.75282973     0.17000
H412        H  0.20057753  0.03720264  0.70300315     0.17000
N413        N  0.29535789  0.98608052  0.89714446     0.00700
C414        C  0.25974411  0.99726577  0.89520672     0.03300
C415        C  0.23774401  0.99912132  0.93882946    -0.19600
C416        C  0.26114087  0.98871132  0.96768133    -0.19800
C417        C  0.29611100  0.98083400  0.94075894     0.03200
H418        H  0.20828331  0.00751939  0.94890911     0.17000
H419        H  0.25373701  0.98747274  0.00388214     0.17000
N420        N  0.46854306  0.65237003  0.81273651     0.00700
C421        C  0.46910654  0.69216659  0.80941617     0.03300
C422        C  0.47178058  0.71494532  0.76424609    -0.19600
C423        C  0.47328824  0.68834334  0.73914399    -0.19800
C424        C  0.47131117  0.65025554  0.76950792     0.03200
H425        H  0.47366643  0.74744047  0.75028226     0.17000
H426        H  0.47683644  0.69617629  0.70224747     0.17000
N427        N  0.47657762  0.80335147  0.88199605     0.00700
C428        C  0.47629930  0.76426787  0.88217266     0.03300
C429        C  0.48037347  0.74062007  0.92392401    -0.19600
C430        C  0.48269644  0.76569212  0.95000988    -0.19800
C431        C  0.48022328  0.80378828  0.92367525     0.03200
H432        H  0.48173654  0.70862551  0.93488023     0.17000
H433        H  0.48551885  0.75693330  0.98472187     0.17000
O434        O  0.46010642  0.52773248  0.72390988    -0.76000
O435        O  0.42610489  0.95179550  0.95973221    -0.76000
O436        O  0.01635737  0.56470969  0.95029842    -0.76000
O437        O  0.39250043  0.95980096  0.77008478    -0.75900
O438        O  0.47933460  0.52992017  0.92460666    -0.76100
O439        O  0.42723781  0.97355941  0.81554413    -0.76000
O440        O  0.38419879  0.94253640  0.69981883    -0.76000
O441        O  0.01826206  0.56469565  0.70138110    -0.76000
C442        C  0.48787338  0.55727089  0.71472031     1.13700
C443        C  0.38999352  0.94947424  0.98612121     1.13600
C444        C  0.47846503  0.56547157  0.92525828     1.13700
C445        C  0.39362412  0.96699854  0.80774606     1.13600
O446        O  0.48558472  0.93689469  0.77009930    -0.76000
O447        O  0.01748654  0.97602467  0.91208161    -0.76000
O448        O  0.06154752  0.49857514  0.70627126    -0.76000
O449        O  0.44589992  0.90847201  0.67834111    -0.76000
O450        O  0.49515386  0.91991489  0.98044144    -0.76000
O451        O  0.01301002  0.00781798  0.76642350    -0.76000
O452        O  0.43538208  0.89832223  0.76751574    -0.75900
O453        O  0.05220632  0.49897590  0.95598810    -0.76000
Co454      Co  0.46250110  0.98801691  0.75248164     1.51500
Co455      Co  0.47637186  0.97240853  0.97196159     1.51700
Co456      Co  0.03638016  0.52814677  0.66285083     1.51600
Co457      Co  0.43343588  0.94654196  0.71752722     1.51500
O458        O  0.48087085  0.99805729  0.68565851    -1.37900
C459        C  0.46429394  0.90179334  0.78282413     1.13700
C460        C  0.04717941  0.99929979  0.91327286     1.13700
C461        C  0.04948587  0.00679895  0.74473229     1.13700
C462        C  0.46879555  0.88888801  0.98967082     1.13700
C463        C  0.47931498  0.83774477  0.94129922    -0.09100
C464        C  0.47656884  0.86166394  0.96271806    -0.10700
C465        C  0.47144341  0.86676007  0.81564368    -0.09100
C466        C  0.47409300  0.83719263  0.84574679    -0.10700
C467        C  0.47028922  0.59511661  0.88745941    -0.09100
C468        C  0.46845832  0.62063816  0.85278142    -0.10700
C469        C  0.47503415  0.61492907  0.75413020    -0.09100
C470        C  0.47987635  0.58894807  0.73549000    -0.10700
C471        C  0.46962544  0.70879408  0.84790638    -0.12300
C472        C  0.47287190  0.74887428  0.84351349    -0.27400
H473        H  0.46803167  0.68678484  0.88091230     0.16800
H474        H  0.47367894  0.77104884  0.81089171     0.17800
C475        C  0.32957329  0.96892021  0.95591564    -0.09100
C476        C  0.35852251  0.95945268  0.96676486    -0.10700
C477        C  0.35680337  0.97265716  0.83765433    -0.09100
C478        C  0.32683826  0.97948844  0.86237109    -0.10700
C479        C  0.08738888  0.00330490  0.88272022    -0.09100
C480        C  0.12080776  0.00907429  0.85491130    -0.10700
C481        C  0.08310942  0.01643331  0.75919309    -0.09100
C482        C  0.11626827  0.02279627  0.76267598    -0.10700
C483        C  0.24698499  0.00623484  0.85284093    -0.12300
C484        C  0.20877173  0.01071512  0.85462674    -0.27400
H485        H  0.26931505  0.00817528  0.81996789     0.16800
H486        H  0.18617863  0.00729712  0.88787986     0.17300
N487        N  0.64649599  0.99266940  0.16280138     0.00700
C488        C  0.68880683  0.48292549  0.15438648     0.03300
C489        C  0.71244206  0.47969052  0.11231402    -0.19600
C490        C  0.68718005  0.47747996  0.08619624    -0.19800
C491        C  0.64609966  0.99368842  0.11942913     0.03200
H492        H  0.74462002  0.47932870  0.10103954     0.17000
H493        H  0.69599780  0.47519521  0.05127107     0.17000
N494        N  0.79875631  0.49123103  0.22858880     0.00700
C495        C  0.75969095  0.49212968  0.22914483     0.03300
C496        C  0.73744586  0.49836923  0.26997055    -0.19600
C497        C  0.76363831  0.50120946  0.29498542    -0.19800
C498        C  0.80104393  0.49665785  0.26903142     0.03200
H499        H  0.70570205  0.50059730  0.28088166     0.17000
H500        H  0.75605487  0.50577521  0.32876725     0.17000
N501        N  0.98600713  0.15724406  0.15656613     0.00700
C502        C  0.98389830  0.19602974  0.15436001     0.03300
C503        C  0.99029878  0.21930011  0.10796135    -0.19600
C504        C  0.99645125  0.19311856  0.08183349    -0.19800
C505        C  0.99362515  0.15528962  0.11322737     0.03200
H506        H  0.99032249  0.25146977  0.09423670     0.17000
H507        H  0.00202592  0.20074564  0.04450438     0.17000
N508        N  0.96107685  0.30081041  0.23324451     0.00700
C509        C  0.96360289  0.26215160  0.23507548     0.03300
C510        C  0.95552082  0.23829114  0.28164560    -0.19600
C511        C  0.94758361  0.26384747  0.30834416    -0.19800
C512        C  0.95111534  0.30194715  0.27706911     0.03200
H513        H  0.95494182  0.20598906  0.29523977     0.17000
H514        H  0.93995113  0.25547191  0.34606295     0.17000
O515        O  0.99325042  0.01572341  0.10101845    -0.76000
O516        O  0.92277560  0.50985494  0.31992029    -0.76000
O517        O  0.48764146  0.05408347  0.28885546    -0.76000
O518        O  0.88428542  0.43942505  0.11769421    -0.75900
O519        O  0.97027167  0.01999955  0.24497361    -0.76100
O520        O  0.91857855  0.50131139  0.09784193    -0.76000
O521        O  0.88458494  0.45171043  0.02640505    -0.76000
O522        O  0.48817102  0.04698806  0.04878698    -0.76000
C523        C  0.98889910  0.05164225  0.08123279     1.13700
C524        C  0.89139910  0.48413173  0.32945814     1.13600
C525        C  0.98471262  0.05235657  0.25050171     1.13700
C526        C  0.88733702  0.47423018  0.12261288     1.13600
O527        O  0.95291750  0.43250525  0.13872170    -0.76000
O528        O  0.52314881  0.46294991  0.27756061    -0.76000
O529        O  0.55304130  0.01475678  0.03199016    -0.76000
O530        O  0.93176016  0.39074339  0.01834834    -0.76000
O531        O  0.94611442  0.44094814  0.28714809    -0.76000
O532        O  0.53139930  0.45734344  0.05865504    -0.76000
O533        O  0.94276768  0.38893020  0.10170645    -0.75900
O534        O  0.55026976  0.01472855  0.28952909    -0.76000
Co535      Co  0.97244087  0.48475435  0.08418951     1.51500
Co536      Co  0.97376511  0.49032819  0.29624955     1.51700
Co537      Co  0.50595397  0.01045183  0.00957226     1.51600
Co538      Co  0.91360491  0.42051661  0.06442019     1.51500
O539        O  0.96192626  0.46764200  0.03490334    -1.37900
C540        C  0.95222800  0.39726136  0.13419122     1.13700
C541        C  0.55517193  0.48825055  0.26321794     1.13700
C542        C  0.55959502  0.48646032  0.05013714     1.13700
C543        C  0.94675834  0.40479688  0.31069202     1.13700
C544        C  0.94594465  0.33888859  0.28770801    -0.09100
C545        C  0.94498387  0.37138296  0.29349751    -0.10700
C546        C  0.96068144  0.36466988  0.16698666    -0.09100
C547        C  0.96320798  0.33426719  0.19488577    -0.10700
C548        C  0.98185700  0.09103824  0.22209870    -0.09100
C549        C  0.98234001  0.12343470  0.19526301    -0.10700
C550        C  0.99565979  0.11756297  0.10350264    -0.09100
C551        C  0.99395910  0.08468539  0.09838651    -0.10700
C552        C  0.97536787  0.20989115  0.19587534    -0.12300
C553        C  0.97274869  0.24857876  0.19330466    -0.27400
H554        H  0.97089746  0.18722337  0.22954191     0.16800
H555        H  0.97735334  0.27128582  0.15961455     0.17800
C556        C  0.83593651  0.49566667  0.28591842    -0.09100
C557        C  0.86145695  0.49292617  0.30565608    -0.10700
C558        C  0.85633648  0.48157166  0.15972402    -0.09100
C559        C  0.83044594  0.48614319  0.19211009    -0.10700
C560        C  0.58943314  0.48682399  0.22491373    -0.09100
C561        C  0.61679706  0.48507352  0.19185217    -0.10700
C562        C  0.59001150  0.48100063  0.07377756    -0.09100
C563        C  0.61457726  0.47951950  0.09478645    -0.10700
C564        C  0.74355821  0.48722146  0.19130855    -0.12300
C565        C  0.70419822  0.48699710  0.19309451    -0.27400
H566        H  0.76525118  0.48375102  0.16088054     0.16800
H567        H  0.68237379  0.49014959  0.22367448     0.17300
N568        N  0.64637802  0.98184349  0.49621439     0.00700
C569        C  0.69022040  0.46308587  0.48933926     0.03300
C570        C  0.71422064  0.45397028  0.45122891    -0.19600
C571        C  0.69093089  0.45214919  0.42283454    -0.19800
C572        C  0.64190349  0.98073702  0.45559515     0.03200
H573        H  0.74518119  0.44910477  0.44420601     0.17000
H574        H  0.70007849  0.44580127  0.39009592     0.17000
N575        N  0.79326987  0.47278799  0.56868137     0.00700
C576        C  0.75456775  0.47219863  0.56893156     0.03300
C577        C  0.73162533  0.47830719  0.60966631    -0.19600
C578        C  0.75790607  0.48279033  0.63445086    -0.19800
C579        C  0.79552244  0.47954171  0.60771536     0.03200
H580        H  0.69952095  0.47914435  0.62063902     0.17000
H581        H  0.75036619  0.48737876  0.66816039     0.17000
N582        N  0.96576213  0.14541981  0.49757263     0.00700
C583        C  0.96779676  0.18537027  0.49441865     0.03300
C584        C  0.96560493  0.20770884  0.45119059    -0.19600
C585        C  0.96245310  0.18075754  0.42724792    -0.19800
C586        C  0.96269998  0.14269521  0.45616819     0.03200
H587        H  0.96651853  0.24008243  0.43782401     0.17000
H588        H  0.96082860  0.18831646  0.39203646     0.17000
N589        N  0.97921171  0.29913523  0.56238174     0.00700
C590        C  0.97923962  0.25961256  0.56474753     0.03300
C591        C  0.98123293  0.23754681  0.60824846    -0.19600
C592        C  0.98188889  0.26442515  0.63295128    -0.19800
C593        C  0.98006410  0.30186031  0.60425996     0.03200
H594        H  0.98168809  0.20543570  0.62128793     0.17000
H595        H  0.98304522  0.25741210  0.66826865     0.17000
O596        O  0.94210952  0.02337791  0.40291504    -0.76000
O597        O  0.93554203  0.47787012  0.60298480    -0.76000
O598        O  0.49266781  0.07660246  0.61497538    -0.76000
O599        O  0.89184188  0.44790030  0.44323465    -0.75900
O600        O  0.95160579  0.03034150  0.63782922    -0.76100
O601        O  0.92802924  0.46774999  0.48416754    -0.76000
O602        O  0.88950504  0.44808784  0.35413822    -0.76000
O603        O  0.50538815  0.06260459  0.35927864    -0.76000
C604        C  0.96994059  0.05253588  0.39488717     1.13700
C605        C  0.90197888  0.47468791  0.63461001     1.13600
C606        C  0.97881224  0.05998505  0.60923939     1.13700
C607        C  0.89406043  0.45801810  0.47892630     1.13600
O608        O  0.98566553  0.42798435  0.44798463    -0.76000
O609        O  0.52511927  0.49143792  0.58024212    -0.76000
O610        O  0.54089331  0.00006586  0.37977597    -0.76000
O611        O  0.94887371  0.39667659  0.35119825    -0.76000
O612        O  0.98957874  0.43252411  0.63150364    -0.76000
O613        O  0.52210138  0.45322787  0.42883741    -0.76000
O614        O  0.94192554  0.38570884  0.43963900    -0.75900
O615        O  0.55569652  0.02972527  0.60319470    -0.76000
Co616      Co  0.96149109  0.47467203  0.42240687     1.51500
Co617      Co  0.97018108  0.48198916  0.63932683     1.51700
Co618      Co  0.50228389  0.01361835  0.34116317     1.51600
Co619      Co  0.92418172  0.42525181  0.39314797     1.51500
O620        O  0.97985356  0.47088855  0.35879177    -1.37900
C621        C  0.96849289  0.39222399  0.45745021     1.13700
C622        C  0.56030845  0.48653142  0.58204905     1.13700
C623        C  0.55573434  0.47450792  0.40240902     1.13700
C624        C  0.96632820  0.39905536  0.65326496     1.13700
C625        C  0.97617439  0.33739993  0.61953033    -0.09100
C626        C  0.97183224  0.36503188  0.63573036    -0.10700
C627        C  0.97632255  0.35913919  0.49151311    -0.09100
C628        C  0.97828268  0.33135578  0.52377572    -0.10700
C629        C  0.97088526  0.08948334  0.57118504    -0.09100
C630        C  0.96775507  0.11407371  0.53666245    -0.10700
C631        C  0.96230874  0.10700731  0.44052841    -0.09100
C632        C  0.96378968  0.08196219  0.42006700    -0.10700
C633        C  0.97224900  0.20244185  0.53182104    -0.12300
C634        C  0.97586874  0.24267209  0.52695573    -0.27400
H635        H  0.97230265  0.18094951  0.56444468     0.16800
H636        H  0.97570005  0.26423383  0.49443803     0.17800
C637        C  0.83263745  0.48148016  0.61886314    -0.09100
C638        C  0.86550659  0.48010340  0.62358252    -0.10700
C639        C  0.85726346  0.46205202  0.51012788    -0.09100
C640        C  0.82637672  0.46662468  0.53547314    -0.10700
C641        C  0.59104409  0.48107949  0.54379782    -0.09100
C642        C  0.61975119  0.47498680  0.51602195    -0.10700
C643        C  0.59162068  0.46677377  0.41358641    -0.09100
C644        C  0.62073585  0.46257528  0.42620925    -0.10700
C645        C  0.74047482  0.46603622  0.53080901    -0.12300
C646        C  0.70270936  0.46839128  0.52898752    -0.27400
H647        H  0.76274689  0.46005663  0.50277533     0.16800
H648        H  0.68050808  0.47491092  0.55671174     0.17300
N649        N  0.64907689  0.99491899  0.81936996     0.00700
C650        C  0.70610111  0.52999433  0.80473961     0.03300
C651        C  0.72924864  0.53329139  0.75936930    -0.19600
C652        C  0.70212324  0.52910807  0.73564611    -0.19800
C653        C  0.64886870  0.00364954  0.77511415     0.03200
H654        H  0.76200492  0.53770346  0.74495288     0.17000
H655        H  0.70939867  0.52954250  0.69973016     0.17000
N656        N  0.80697624  0.50769243  0.88833820     0.00700
C657        C  0.77291664  0.52132736  0.88414801     0.03300
C658        C  0.75244861  0.52853375  0.92518439    -0.19600
C659        C  0.77499766  0.51841614  0.95510944    -0.19800
C660        C  0.80811500  0.50564811  0.93110820     0.03200
H661        H  0.72416460  0.53947549  0.93311111     0.17000
H662        H  0.76768680  0.51967649  0.99042051     0.17000
N663        N  0.95217859  0.15067356  0.82216648     0.00700
C664        C  0.95087907  0.18931586  0.82258583     0.03300
C665        C  0.94568466  0.21255332  0.78142401    -0.19600
C666        C  0.94432568  0.18729681  0.75504315    -0.19800
C667        C  0.94891923  0.14971256  0.78051136     0.03200
H668        H  0.94350170  0.24438069  0.77106534     0.17000
H669        H  0.94106794  0.19554531  0.72059775     0.17000
N670        N  0.96957355  0.29776710  0.89539892     0.00700
C671        C  0.96532507  0.25829719  0.89686404     0.03300
C672        C  0.96564894  0.23375591  0.94017759    -0.19600
C673        C  0.96990587  0.25910411  0.96570189    -0.19800
C674        C  0.97228628  0.29816398  0.93739414     0.03200
H675        H  0.96238938  0.20099326  0.95275606     0.17000
H676        H  0.97017633  0.24992925  0.00146295     0.17000
O677        O  0.94698183  0.03001084  0.72856324    -0.76000
O678        O  0.92999055  0.45838937  0.95725404    -0.76000
O679        O  0.50672057  0.05994678  0.95861506    -0.76000
O680        O  0.89850908  0.46653769  0.76909396    -0.75900
O681        O  0.96656030  0.02572875  0.92782185    -0.76100
O682        O  0.93246117  0.47713506  0.81648605    -0.76000
O683        O  0.90013375  0.46936273  0.67743138    -0.76000
O684        O  0.50245437  0.07821304  0.70008015    -0.76000
C685        C  0.97244614  0.06146570  0.71951721     1.13700
C686        C  0.89485019  0.46094129  0.98228852     1.13600
C687        C  0.96860940  0.06169770  0.92768954     1.13700
C688        C  0.89977764  0.47458080  0.80633892     1.13600
O689        O  0.98467613  0.43042385  0.78434793    -0.76000
O690        O  0.53148263  0.48200019  0.90966738    -0.76000
O691        O  0.55750474  0.02458253  0.69097056    -0.76000
O692        O  0.93713888  0.39648838  0.68891996    -0.76000
O693        O  0.99569895  0.42034120  0.98302570    -0.76000
O694        O  0.52398949  0.49933230  0.76243400    -0.76000
O695        O  0.93683213  0.39444744  0.77414796    -0.75900
O696        O  0.54707881  0.99868173  0.95630006    -0.76000
Co697      Co  0.96780793  0.48147602  0.75648241     1.51500
Co698      Co  0.98190927  0.47545528  0.96894626     1.51700
Co699      Co  0.52426053  0.04944738  0.65399426     1.51600
Co700      Co  0.92641810  0.43730845  0.72335981     1.51500
O701        O  0.98822276  0.47753742  0.69339452    -1.37900
C702        C  0.96353107  0.39660546  0.79316043     1.13700
C703        C  0.55978324  0.50774247  0.90966981     1.13700
C704        C  0.55986318  0.49620523  0.74105874     1.13700
C705        C  0.96714223  0.39108189  0.99272131     1.13700
C706        C  0.97412259  0.33332183  0.95308890    -0.09100
C707        C  0.97314457  0.36001041  0.97072351    -0.10700
C708        C  0.96800475  0.36096309  0.82701323    -0.09100
C709        C  0.96927827  0.33171182  0.85816526    -0.10700
C710        C  0.95967727  0.09183280  0.89132059    -0.09100
C711        C  0.95587722  0.11815283  0.85879859    -0.10700
C712        C  0.95437641  0.11660843  0.76142721    -0.09100
C713        C  0.96122394  0.09192892  0.74120458    -0.10700
C714        C  0.95575919  0.20417393  0.86108712    -0.12300
C715        C  0.95988914  0.24384231  0.85825737    -0.27400
H716        H  0.95677074  0.18152115  0.89233049     0.16800
H717        H  0.95958304  0.26664651  0.82669735     0.17800
C718        C  0.83903081  0.48995260  0.94890307    -0.09100
C719        C  0.86573507  0.47599145  0.96128571    -0.10700
C720        C  0.86469331  0.48561039  0.83308046    -0.09100
C721        C  0.83647186  0.49608554  0.85620523    -0.10700
C722        C  0.59976684  0.51438136  0.87717288    -0.09100
C723        C  0.63227399  0.51929533  0.84789836    -0.10700
C724        C  0.59357280  0.50507198  0.75575859    -0.09100
C725        C  0.62593554  0.51393126  0.76010563    -0.10700
C726        C  0.75930469  0.52551360  0.84288232    -0.12300
C727        C  0.72121545  0.52984897  0.84412933    -0.27400
H728        H  0.78053474  0.52255477  0.81182540     0.16800
H729        H  0.69945077  0.53085992  0.87597091     0.17300
N730        N  0.64968085  0.48267810  0.15458370     0.00700
C731        C  0.68631760  0.99767429  0.16052233     0.03300
C732        C  0.71072838  0.00178372  0.11543194    -0.19600
C733        C  0.68523357  0.99930167  0.08964246    -0.19800
C734        C  0.64887124  0.47935436  0.11266667     0.03200
H735        H  0.74352397  0.00622484  0.10204894     0.17000
H736        H  0.69433532  0.00114994  0.05312010     0.17000
N737        N  0.79680021  0.99989657  0.23453131     0.00700
C738        C  0.75775852  0.00201839  0.23564567     0.03300
C739        C  0.73555203  0.00515410  0.27829309    -0.19600
C740        C  0.76163823  0.00456743  0.30405321    -0.19800
C741        C  0.79894341  0.00108829  0.27674143     0.03200
H742        H  0.70382795  0.00740283  0.28997142     0.17000
H743        H  0.75407114  0.00596067  0.33929652     0.17000
N744        N  0.96545965  0.65733655  0.15600382     0.00700
C745        C  0.95395972  0.69244283  0.15898825     0.03300
C746        C  0.94699028  0.71290273  0.11764236    -0.19600
C747        C  0.95453894  0.68877368  0.08919259    -0.19800
C748        C  0.96610109  0.65514965  0.11410657     0.03200
H749        H  0.93691877  0.74163843  0.10900205     0.17000
H750        H  0.95133009  0.69475787  0.05483738     0.17000
N751        N  0.93339493  0.79365911  0.24231628     0.00700
C752        C  0.93662773  0.75546057  0.24286897     0.03300
C753        C  0.93578156  0.73232012  0.28740239    -0.19600
C754        C  0.93230258  0.75812860  0.31402805    -0.19800
C755        C  0.93095987  0.79556238  0.28477079     0.03200
H756        H  0.93794545  0.70057332  0.29941737     0.17000
H757        H  0.93174374  0.75062834  0.35005379     0.17000
O758        O  0.98654917  0.51956507  0.11651805    -0.76000
O759        O  0.91905163  0.00499612  0.33053442    -0.76000
O760        O  0.48023291  0.54708838  0.30129137    -0.76000
O761        O  0.87320693  0.96832265  0.09885117    -0.75900
O762        O  0.97806730  0.52550093  0.23605255    -0.76100
O763        O  0.91914969  0.98373064  0.12785070    -0.76000
O764        O  0.88667365  0.96689332  0.01216568    -0.76000
O765        O  0.48814647  0.56279149  0.04369834    -0.76000
C766        C  0.99116748  0.55340357  0.08403745     1.13700
C767        C  0.88717368  0.98016433  0.33963292     1.13600
C768        C  0.98655146  0.55898294  0.24298042     1.13700
C769        C  0.88324690  0.98165523  0.12781059     1.13600
O770        O  0.96539293  0.93038993  0.14814437    -0.76000
O771        O  0.51327702  0.96387196  0.28599817    -0.76000
O772        O  0.55655169  0.52222158  0.02871365    -0.76000
O773        O  0.92875303  0.89899221  0.02875613    -0.76000
O774        O  0.93733630  0.93584282  0.29479034    -0.76000
O775        O  0.51903083  0.95968917  0.08688705    -0.76000
O776        O  0.92338369  0.90498442  0.11645475    -0.75900
O777        O  0.55571710  0.51587063  0.28121872    -0.76000
Co778      Co  0.96651544  0.96634636  0.09043868     1.51500
Co779      Co  0.96770695  0.98410360  0.30370916     1.51700
Co780      Co  0.51714970  0.54285878  0.99475181     1.51600
Co781      Co  0.90721267  0.93935369  0.06119177     1.51500
O782        O  0.95793014  0.98814242  0.02862972    -1.37900
C783        C  0.94231852  0.90068857  0.14676439     1.13700
C784        C  0.54756038  0.98705868  0.27227877     1.13700
C785        C  0.55130204  0.98618220  0.06757342     1.13700
C786        C  0.93856468  0.89934920  0.31662828     1.13700
C787        C  0.93097858  0.83321264  0.29483612    -0.09100
C788        C  0.93334748  0.86612756  0.29981751    -0.10700
C789        C  0.93849714  0.86077044  0.17746206    -0.09100
C790        C  0.93596589  0.82785457  0.20456658    -0.10700
C791        C  0.97976587  0.59576875  0.21443303    -0.09100
C792        C  0.97316639  0.62600079  0.18998734    -0.10700
C793        C  0.97656053  0.62099257  0.09988281    -0.09100
C794        C  0.98492776  0.58977492  0.09452848    -0.10700
C795        C  0.94918204  0.70545972  0.20071081    -0.12300
C796        C  0.94109746  0.74209743  0.20143060    -0.27400
H797        H  0.95313460  0.68433257  0.23134193     0.16800
H798        H  0.93823639  0.76362723  0.17036196     0.17800
C799        C  0.83325377  0.99644227  0.29442348    -0.09100
C800        C  0.85779380  0.99084820  0.31540701    -0.10700
C801        C  0.85335958  0.99170650  0.16360257    -0.09100
C802        C  0.82809109  0.99612115  0.19666223    -0.10700
C803        C  0.58233232  0.98422746  0.23564557    -0.09100
C804        C  0.61204270  0.98732482  0.20240393    -0.10700
C805        C  0.58361502  0.98586303  0.08799419    -0.09100
C806        C  0.61053199  0.98882641  0.10485766    -0.10700
C807        C  0.74149618  0.00067479  0.19680296    -0.12300
C808        C  0.70161529  0.99876152  0.20017339    -0.27400
H809        H  0.76337272  0.00081304  0.16460040     0.16800
H810        H  0.67944312  0.99767337  0.23269768     0.17300
N811        N  0.65327257  0.46680497  0.48473549     0.00700
C812        C  0.68507629  0.97885438  0.49360123     0.03300
C813        C  0.70552136  0.97499992  0.45060231    -0.19600
C814        C  0.67781199  0.97616400  0.42646100    -0.19800
C815        C  0.65387949  0.46017271  0.44449268     0.03200
H816        H  0.73699801  0.97229595  0.43762497     0.17000
H817        H  0.68339737  0.97447445  0.39149936     0.17000
N818        N  0.79249944  0.97479376  0.56981905     0.00700
C819        C  0.75513086  0.98021149  0.56859124     0.03300
C820        C  0.73451764  0.98905081  0.60854294    -0.19600
C821        C  0.76081026  0.98891675  0.63423362    -0.19800
C822        C  0.79603773  0.98014210  0.60905124     0.03200
H823        H  0.70404089  0.99522342  0.61832036     0.17000
H824        H  0.75504882  0.99466101  0.66722232     0.17000
N825        N  0.96317419  0.64491647  0.49965321     0.00700
C826        C  0.96422005  0.68437670  0.49757008     0.03300
C827        C  0.95752008  0.70653158  0.45695313    -0.19600
C828        C  0.95245504  0.67972234  0.43342315    -0.19800
C829        C  0.95604027  0.64208317  0.46014790     0.03200
H830        H  0.95657828  0.73861003  0.44513753     0.17000
H831        H  0.94740377  0.68707993  0.39987014     0.17000
N832        N  0.98346548  0.79557572  0.56508953     0.00700
C833        C  0.98395114  0.75664082  0.56596645     0.03300
C834        C  0.99059388  0.73446495  0.60672182    -0.19600
C835        C  0.99377388  0.76092644  0.63133737    -0.19800
C836        C  0.98872516  0.79800906  0.60525517     0.03200
H837        H  0.99268630  0.70264885  0.61792420     0.17000
H838        H  0.99880716  0.75393619  0.66479801     0.17000
O839        O  0.93961314  0.52480281  0.40237424    -0.76000
O840        O  0.93498507  0.97307001  0.60185171    -0.76000
O841        O  0.52338199  0.55176276  0.60821860    -0.76000
O842        O  0.89038640  0.94005190  0.45122276    -0.75900
O843        O  0.95503920  0.53524857  0.63885963    -0.76100
O844        O  0.92553251  0.96903470  0.48713902    -0.76000
O845        O  0.88491471  0.94345678  0.36294626    -0.76000
O846        O  0.48679105  0.54228969  0.39192394    -0.76000
C847        C  0.96477457  0.55624807  0.39410195     1.13700
C848        C  0.90157130  0.96522845  0.63530117     1.13600
C849        C  0.98253665  0.56448880  0.61049965     1.13700
C850        C  0.89194954  0.95552722  0.48342243     1.13600
O851        O  0.97682895  0.92218789  0.45902705    -0.76000
O852        O  0.52462080  0.96592100  0.62329730    -0.76000
O853        O  0.55766023  0.50395885  0.36743084    -0.76000
O854        O  0.94381651  0.89063828  0.35559482    -0.76000
O855        O  0.98801067  0.92843219  0.63003251    -0.76000
O856        O  0.50380510  0.98994443  0.45432555    -0.76000
O857        O  0.94154669  0.87834791  0.44223814    -0.75900
O858        O  0.56908143  0.48624822  0.61813149    -0.76000
Co859      Co  0.95820176  0.97070379  0.42733029     1.51500
Co860      Co  0.96806403  0.97722869  0.63918581     1.51700
Co861      Co  0.51441011  0.51869866  0.33972369     1.51600
Co862      Co  0.92081803  0.91801478  0.39950274     1.51500
O863        O  0.97623319  0.96304487  0.36512924    -1.37900
C864        C  0.96411356  0.88610420  0.46426308     1.13700
C865        C  0.55527949  0.99422154  0.60032909     1.13700
C866        C  0.53814676  0.99500796  0.42295989     1.13700
C867        C  0.97128081  0.89304731  0.65570350     1.13700
C868        C  0.98503683  0.83251694  0.62189912    -0.09100
C869        C  0.97982998  0.85964775  0.63846480    -0.10700
C870        C  0.97336980  0.85388144  0.49778756    -0.09100
C871        C  0.97833413  0.82728297  0.52894647    -0.10700
C872        C  0.97492066  0.59224481  0.57098069    -0.09100
C873        C  0.96917447  0.61455864  0.53677269    -0.10700
C874        C  0.95524872  0.60707220  0.44376109    -0.09100
C875        C  0.95663305  0.58321566  0.42195688    -0.10700
C876        C  0.97192510  0.70075547  0.53386711    -0.12300
C877        C  0.97690236  0.74068024  0.52916324    -0.27400
H878        H  0.97351679  0.67904070  0.56547133     0.16800
H879        H  0.97517111  0.76256137  0.49773493     0.17800
C880        C  0.83240671  0.97683600  0.62126559    -0.09100
C881        C  0.86469871  0.97206617  0.62608326    -0.10700
C882        C  0.85456004  0.96024337  0.51273283    -0.09100
C883        C  0.82398988  0.96630601  0.53695798    -0.10700
C884        C  0.58875304  0.98767308  0.56643857    -0.09100
C885        C  0.61576213  0.98482217  0.53452838    -0.10700
C886        C  0.57421696  0.99120213  0.43565648    -0.09100
C887        C  0.60531005  0.98614833  0.44400130    -0.10700
C888        C  0.73983156  0.97735204  0.52999823    -0.12300
C889        C  0.70171287  0.98116668  0.53130774    -0.27400
H890        H  0.76032423  0.97178023  0.50029640     0.16800
H891        H  0.68137163  0.98628580  0.56136524     0.17300
N892        N  0.66636619  0.52452750  0.80870857     0.00700
C893        C  0.68756523  0.99245080  0.81868322     0.03300
C894        C  0.71208715  0.99974122  0.77261479    -0.19600
C895        C  0.68724545  0.00696754  0.74501761    -0.19800
C896        C  0.66388838  0.52339852  0.76741850     0.03200
H897        H  0.74437080  0.00018057  0.75985382     0.17000
H898        H  0.69614811  0.01425810  0.70734918     0.17000
N899        N  0.79145322  0.96811729  0.89835536     0.00700
C900        C  0.75307795  0.97211526  0.90019617     0.03300
C901        C  0.72967015  0.96513629  0.94660944    -0.19600
C902        C  0.75520266  0.95640821  0.97330682    -0.19800
C903        C  0.79276968  0.95823949  0.94213984     0.03200
H904        H  0.69780542  0.96632289  0.95996167     0.17000
H905        H  0.74726673  0.94987717  0.01084743     0.17000
N906        N  0.98035493  0.65752578  0.82736811     0.00700
C907        C  0.97948086  0.69652353  0.82732349     0.03300
C908        C  0.97244839  0.71885732  0.78694858    -0.19600
C909        C  0.96897900  0.69278217  0.76199729    -0.19800
C910        C  0.97431833  0.65546131  0.78712362     0.03200
H911        H  0.96950598  0.75045765  0.77655645     0.17000
H912        H  0.96262722  0.69999155  0.72926425     0.17000
N913        N  0.98158169  0.80564161  0.90422947     0.00700
C914        C  0.98573580  0.76741667  0.90316889     0.03300
C915        C  0.99124133  0.74499192  0.94449963    -0.19600
C916        C  0.99002932  0.77005222  0.97152286    -0.19800
C917        C  0.98371098  0.80695464  0.94640566     0.03200
H918        H  0.99527014  0.71371279  0.95463336     0.17000
H919        H  0.99299158  0.76207822  0.00612713     0.17000
O920        O  0.95451602  0.53647968  0.73354989    -0.76000
O921        O  0.93093380  0.95261716  0.95651528    -0.76000
O922        O  0.48779718  0.57555050  0.95656194    -0.76000
O923        O  0.89645816  0.95819054  0.76796932    -0.75900
O924        O  0.96431051  0.52905791  0.94795305    -0.76100
O925        O  0.92833001  0.97505204  0.81426344    -0.76000
O926        O  0.89993411  0.95393880  0.67868515    -0.76000
O927        O  0.52397768  0.55552357  0.69341873    -0.76000
C928        C  0.98274928  0.56545057  0.72545658     1.13700
C929        C  0.89534766  0.95834228  0.97509356     1.13600
C930        C  0.98840776  0.56262915  0.93330275     1.13700
C931        C  0.89590911  0.96766666  0.80477824     1.13600
O932        O  0.98672004  0.93226603  0.78589170    -0.76000
O933        O  0.51241351  0.98917266  0.90897726    -0.76000
O934        O  0.56752345  0.48884270  0.70310526    -0.76000
O935        O  0.94566579  0.88734876  0.69508894    -0.76000
O936        O  0.99315148  0.92516750  0.99988949    -0.76000
O937        O  0.51281742  0.01207156  0.76212791    -0.76000
O938        O  0.94101858  0.89062121  0.77977046    -0.75900
O939        O  0.55374578  0.52767042  0.93920109    -0.76000
Co940      Co  0.96536579  0.97913563  0.75510918     1.51500
Co941      Co  0.98063626  0.97733649  0.96821412     1.51700
Co942      Co  0.54257266  0.51669713  0.65796915     1.51600
Co943      Co  0.92850368  0.92849920  0.72600811     1.51500
O944        O  0.98705237  0.97331484  0.69303425    -1.37900
C945        C  0.96730692  0.89694787  0.79826490     1.13700
C946        C  0.54600393  0.99470832  0.91713478     1.13700
C947        C  0.54907391  0.01661200  0.73475925     1.13700
C948        C  0.96492233  0.89613901  0.00867877     1.13700
C949        C  0.97782846  0.84021576  0.96576481    -0.09100
C950        C  0.97245324  0.86480601  0.98667998    -0.10700
C951        C  0.97337917  0.86451770  0.83520200    -0.09100
C952        C  0.97705959  0.83772610  0.86756593    -0.10700
C953        C  0.98496721  0.59688703  0.89671243    -0.09100
C954        C  0.98321819  0.62481291  0.86433706    -0.10700
C955        C  0.97479807  0.62069424  0.76987613    -0.09100
C956        C  0.97658306  0.59552987  0.74961655    -0.10700
C957        C  0.98425477  0.71248430  0.86549630    -0.12300
C958        C  0.98299780  0.75165904  0.86421396    -0.27400
H959        H  0.98839728  0.69101587  0.89566269     0.16800
H960        H  0.97886897  0.77307515  0.83402325     0.17800
C961        C  0.82983274  0.95324079  0.95246515    -0.09100
C962        C  0.86263950  0.95354039  0.95753618    -0.10700
C963        C  0.85787283  0.97233989  0.83296797    -0.09100
C964        C  0.82548312  0.97216638  0.85966839    -0.10700
C965        C  0.58333440  0.99338113  0.88457818    -0.09100
C966        C  0.61494770  0.99283246  0.85700645    -0.10700
C967        C  0.58227707  0.01271234  0.75260409    -0.09100
C968        C  0.61302240  0.00910270  0.76207920    -0.10700
C969        C  0.73947877  0.98199766  0.85850717    -0.12300
C970        C  0.70061061  0.98348037  0.86089606    -0.27400
H971        H  0.76252539  0.98768888  0.82483563     0.16800
H972        H  0.67747208  0.97761766  0.89459256     0.17300
loop_ 
_geom_bond_atom_site_label_1 
_geom_bond_atom_site_label_2 
_geom_bond_distance 
_geom_bond_site_symmetry_2 
_ccdc_geom_bond_type 
N1            C5   1.360       .  A
N1          C245   1.360       .  A
N1          C318   1.413       .  S
C2          N244   1.361       .  A
C2            C3   1.390       .  A
C2           C79   1.497       .  S
C3            C4   1.382       .  A
C3            H6   1.081       .  S
C4          C248   1.380       .  A
C4            H7   1.083       .  S
C5          C247   1.378       .  A
C5          C320   1.457       .  S
N8           C12   1.360       .  A
N8            C9   1.362       .  A
N8           C73   1.413       .  S
C9           C10   1.389       .  A
C9           C78   1.498       .  S
C10          C11   1.381       .  A
C10          H13   1.081       .  S
C11          C12   1.378       .  A
C11          H14   1.082       .  S
C12          C70   1.458       .  S
N15          C19   1.336       .  A
N15          C16   1.344       .  A
N15          C63   1.405       .  S
C16          C17   1.392       .  A
C16          C66   1.470       .  S
C17          C18   1.383       .  A
C17          H20   1.081       .  S
C18          C19   1.377       .  A
C18          H21   1.082       .  S
C19          C64   1.424       .  S
N22          C26   1.336       .  A
N22          C23   1.343       .  A
N22          C61   1.402       .  S
C23          C24   1.393       .  A
C23          C67   1.470       .  S
C24          C25   1.381       .  A
C24          H27   1.081       .  S
C25          C26   1.376       .  A
C25          H28   1.082       .  S
C26          C58   1.422       .  S
O29          C37   1.279       .  A
O29        Co292   1.896   1_545  S
O30          C38   1.254       .  A
O30         Co50   1.988       .  S
O31         C525   1.290   1_455  A
O31        Co132   2.061       .  S
O32          C40   1.246       .  A
O32         Co52   1.970       .  S
O33          C39   1.280       .  A
O33        Co293   1.898   1_545  S
O34          C40   1.251       .  A
O34         Co49   2.006       .  S
O35         C200   1.248   1_554  A
O35         Co52   1.928       .  S
O36         C523   1.248       .  A
O36         Co51   1.935   1_654  S
C37          C65   1.413       .  S
C37         O522   1.290       .  A
C38          C71   1.454       .  S
C38         O116   1.265       .  A
C39          C62   1.430       .  S
C39         O517   1.294       .  A
C40          C72   1.445       .  S
O41          C54   1.273       .  A
O41         Co49   1.874       .  S
O42          C55   1.249       .  A
O42        Co536   1.988   1_455  S
O43         C299   1.268   1_545  A
O43         Co51   2.038   1_554  S
O44         C219   1.265       .  A
O44         Co52   2.023       .  S
O45          C57   1.272       .  A
O45         Co50   2.011       .  S
O46          C56   1.259       .  A
O46        Co535   2.017   1_455  S
O47          C54   1.295       .  A
O47         Co52   2.084       .  S
O48         C298   1.251       .  A
O48        Co132   1.991   1_565  S
Co49        O272   2.027       .  S
Co49        O532   1.967       .  S
Co49         O53   1.996       .  S
Co50        O276   1.901       .  S
Co50        O528   1.972       .  S
Co50        O134   1.931       .  S
Co51        O193   1.976   1_455  S
Co51        O210   2.072       .  S
Co51        O782   2.116   1_446  S
Co52         O53   2.112       .  S
O53        Co212   1.995   1_554  S
O53        Co780   2.114   1_554  S
C54          C60   1.427       .  S
C55          C74   1.445       .  S
C55         O291   1.248       .  A
C56          C76   1.447       .  S
C56         O286   1.247       .  A
C57          C59   1.410       .  S
C57         O125   1.253       .  A
C58          C59   1.193       .  T
C60          C61   1.202       .  T
C62          C63   1.203       .  T
C64          C65   1.194       .  T
C66          C67   1.337       .  D
C66          H68   1.084       .  S
C67          H69   1.084       .  S
C70          C71   1.217       .  T
C72          C73   1.213       .  T
C74          C75   1.212       .  T
C75         N244   1.413       .  S
C76          C77   1.213       .  T
C77         C248   1.453       .  S
C78          C79   1.357       .  D
C78          H80   1.085       .  S
C79          H81   1.085       .  S
N82          C86   1.335       .  A
N82         C326   1.349       .  A
N82         C399   1.399       .  S
C83         N325   1.351       .  A
C83          C84   1.394       .  A
C83         C160   1.488       .  S
C84          C85   1.385       .  A
C84          H87   1.081       .  S
C85         C329   1.375       .  A
C85          H88   1.081       .  S
C86         C328   1.379       .  A
C86         C401   1.438       .  S
N89          C93   1.350       .  A
N89          C90   1.352       .  A
N89         C154   1.405       .  S
C90          C91   1.389       .  A
C90         C159   1.487       .  S
C91          C92   1.386       .  A
C91          H94   1.081       .  S
C92          C93   1.381       .  A
C92          H95   1.082       .  S
C93         C151   1.450       .  S
N96         C100   1.347       .  A
N96          C97   1.351       .  A
N96         C144   1.409       .  S
C97          C98   1.389       .  A
C97         C147   1.482       .  S
C98          C99   1.382       .  A
C98         H101   1.081       .  S
C99         C100   1.378       .  A
C99         H102   1.081       .  S
C100        C145   1.437       .  S
N103        C107   1.349       .  A
N103        C104   1.353       .  A
N103        C142   1.412       .  S
C104        C105   1.391       .  A
C104        C148   1.484       .  S
C105        C106   1.378       .  A
C105        H108   1.081       .  S
C106        C107   1.376       .  A
C106        H109   1.081       .  S
C107        C139   1.433       .  S
O110        C118   1.258       .  A
O110       Co373   2.008   1_545  S
O111        C119   1.266       .  A
O111       Co131   1.894       .  S
O112        C606   1.262   1_455  A
O112       Co213   2.021       .  S
O113        C121   1.264       .  A
O113       Co133   2.010       .  S
O114        C120   1.272       .  A
O114       Co374   2.009   1_545  S
O115        C121   1.254       .  A
O115       Co130   1.978       .  S
O116       Co133   2.033       .  S
O117        C604   1.262   1_455  A
O117       Co132   2.032       .  S
C118        C146   1.430       .  S
C118        O603   1.245       .  A
C119        C152   1.445       .  S
C119        O197   1.298       .  A
C120        C143   1.438       .  S
C120        O598   1.267       .  A
C121        C153   1.432       .  S
O122        C135   1.268       .  A
O122       Co130   2.021       .  S
O123        C136   1.272       .  A
O123       Co617   2.028   1_455  S
O124        C380   1.250       .  A
O124       Co132   1.936   1_565  S
O125       Co133   1.933       .  S
O126        C138   1.245       .  A
O126       Co131   1.957       .  S
O127        C137   1.271       .  A
O127       Co616   2.025   1_455  S
O128        C135   1.257       .  A
O128       Co133   1.973       .  S
O129        C379   1.251       .  A
O129       Co213   1.935   1_565  S
Co130       O353   1.891       .  S
Co130       O613   1.955       .  S
Co130       O134   1.939       .  S
Co131       O357   1.975       .  S
Co131       O609   2.029       .  S
Co131       O215   1.949       .  S
Co132       O863   2.162   1_445  S
Co133       O134   2.104       .  S
O134       Co861   2.248       .  S
C135        C141   1.443       .  S
C136        C155   1.422       .  S
C136        O372   1.248       .  A
C137        C157   1.421       .  S
C137        O367   1.250       .  A
C138        C140   1.426       .  S
C138        O206   1.252       .  A
C139        C140   1.201       .  T
C141        C142   1.211       .  T
C143        C144   1.208       .  T
C145        C146   1.203       .  T
C147        C148   1.345       .  D
C147        H149   1.083       .  S
C148        H150   1.084       .  S
C151        C152   1.211       .  T
C153        C154   1.205       .  T
C155        C156   1.200       .  T
C156        N325   1.400       .  S
C157        C158   1.200       .  T
C158        C329   1.434       .  S
C159        C160   1.347       .  D
C159        H161   1.084       .  S
C160        H162   1.085       .  S
N163        C167   1.337       .  A
N163        C407   1.348       .  A
N163        C480   1.401       .  S
C164        N406   1.347       .  A
C164        C165   1.394       .  A
C164        C241   1.480       .  S
C165        C166   1.384       .  A
C165        H168   1.080       .  S
C166        C410   1.376       .  A
C166        H169   1.082       .  S
C167        C409   1.379       .  A
C167        C482   1.435       .  S
N170        C174   1.335       .  A
N170        C171   1.345       .  A
N170        C235   1.399       .  S
C171        C172   1.392       .  A
C171        C240   1.475       .  S
C172        C173   1.387       .  A
C172        H175   1.081       .  S
C173        C174   1.379       .  A
C173        H176   1.082   1_556  S
C174        C232   1.433       .  S
N177        C181   1.360       .  A
N177        C178   1.361       .  A
N177        C225   1.416       .  S
C178        C179   1.389       .  A
C178        C228   1.494       .  S
C179        C180   1.374       .  A
C179        H182   1.081       .  S
C180        C181   1.376       .  A
C180        H183   1.081       .  S
C181        C226   1.449       .  S
N184        C188   1.362       .  A
N184        C185   1.360       .  A
N184        C223   1.419       .  S
C185        C186   1.386       .  A
C185        C229   1.489       .  S
C186        C187   1.378       .  A
C186        H189   1.081       .  S
C187        C188   1.380       .  A
C187        H190   1.082   1_556  S
C188        C220   1.453       .  S
O191        C199   1.259       .  A
O191       Co454   1.980   1_545  S
O192        C200   1.275       .  A
O192       Co212   2.037       .  S
O193        C687   1.249       .  A
O194        C202   1.290       .  A
O194       Co214   2.051       .  S
O195        C201   1.258       .  A
O195       Co455   2.014   1_545  S
O196        C202   1.276       .  A
O196       Co211   1.901       .  S
O197       Co214   2.099       .  S
O198        C685   1.265   1_455  A
O198       Co213   2.029       .  S
C199        C227   1.446       .  S
C199        O684   1.266       .  A
C200        C233   1.416       .  S
C201        C224   1.451       .  S
C201        O679   1.250       .  A
C202        C234   1.423       .  S
O203        C216   1.240       .  A
O203       Co211   1.966       .  S
O204        C217   1.283       .  A
O204       Co698   1.905   1_455  S
O205        C461   1.247   1_565  A
O205       Co213   1.937   1_565  S
O206       Co214   1.986       .  S
O207        C219   1.256   1_556  A
O207       Co212   1.965       .  S
O208        C218   1.271       .  A
O208       Co697   2.022   1_455  S
O209        C216   1.257       .  A
O209       Co214   2.032       .  S
O210        C460   1.292   1_545  A
Co211       O434   1.984       .  S
Co211       O694   2.027       .  S
Co211       O215   1.941       .  S
Co212       O438   2.005       .  S
Co212       O690   1.875       .  S
Co213       O944   2.100   1_445  S
Co214       O215   2.240       .  S
O215       Co942   2.098       .  S
C216        C222   1.455       .  S
C217        C236   1.423       .  S
C217        O453   1.288       .  A
C218        C238   1.417       .  S
C218        O448   1.249       .  A
C219        C221   1.449   1_554  S
C220        C221   1.215       .  T
C222        C223   1.218       .  T
C224        C225   1.216       .  T
C226        C227   1.213       .  T
C228        C229   1.355       .  D
C228        H230   1.082       .  S
C229        H231   1.080       .  S
C232        C233   1.199       .  T
C234        C235   1.199       .  T
C236        C237   1.199       .  T
C237        N406   1.398       .  S
C238        C239   1.198       .  T
C239        C410   1.431       .  S
C240        C241   1.341       .  D
C240        H242   1.088       .  S
C241        H243   1.089       .  S
N244        C248   1.356       .  A
C245        C246   1.388       .  A
C245        C322   1.496       .  S
C246        C247   1.381       .  A
C246        H249   1.081       .  S
C247        H250   1.081       .  S
N251        C255   1.359       .  A
N251        C252   1.360       .  A
N251        C316   1.413       .  S
C252        C253   1.389       .  A
C252        C321   1.496       .  S
C253        C254   1.380       .  A
C253        H256   1.081       .  S
C254        C255   1.378       .  A
C254        H257   1.081       .  S
C255        C313   1.454       .  S
N258        C262   1.336       .  A
N258        C259   1.345       .  A
N258        C306   1.401       .  S
C259        C260   1.393       .  A
C259        C309   1.477       .  S
C260        C261   1.384       .  A
C260        H263   1.081       .  S
C261        C262   1.378       .  A
C261        H264   1.082       .  S
C262        C307   1.429       .  S
N265        C269   1.338       .  A
N265        C266   1.346       .  A
N265        C304   1.400       .  S
C266        C267   1.391       .  A
C266        C310   1.478       .  S
C267        C268   1.385       .  A
C267        H270   1.082       .  S
C268        C269   1.379       .  A
C268        H271   1.082       .  S
C269        C301   1.433       .  S
O272        C280   1.273       .  A
O273        C281   1.260   1_545  A
O273       Co293   1.988   1_545  S
O274        C768   1.291       .  A
O274       Co375   2.062   1_655  S
O275        C283   1.268       .  A
O275       Co295   2.019       .  S
O276        C282   1.275       .  A
O277        C283   1.262       .  A
O277       Co292   1.984       .  S
O278        C443   1.262   1_554  A
O278       Co295   1.955       .  S
O279        C766   1.288       .  A
O279       Co294   2.036   1_655  S
C280        C308   1.415       .  S
C280        O765   1.251       .  A
C281        C314   1.449       .  S
C281        O359   1.264       .  A
C282        C305   1.426       .  S
C282        O760   1.292       .  A
C283        C315   1.447       .  S
O284        C297   1.277       .  A
O284       Co292   2.010       .  S
O285        C298   1.246       .  A
O285       Co779   1.980   1_455  S
O286       Co294   1.974       .  S
O287        C462   1.267   1_554  A
O287       Co295   2.013       .  S
O288        C300   1.279       .  A
O288       Co293   2.018       .  S
O289        C299   1.254       .  A
O289       Co778   1.962   1_455  S
O290        C297   1.263       .  A
O290       Co295   1.959       .  S
O291       Co375   1.985       .  S
Co292       O775   2.014       .  S
Co292       O296   1.925       .  S
Co293       O771   2.030       .  S
Co293       O377   1.932       .  S
Co294       O436   1.972   1_554  S
Co294       O453   2.036   1_554  S
Co294       O539   2.108   1_455  S
Co295       O296   2.030       .  S
O296       Co455   1.927   1_554  S
O296       Co537   2.109   1_565  S
C297        C303   1.424       .  S
C298        C317   1.446       .  S
C299        C319   1.452       .  S
C300        C302   1.424       .  S
C300        O368   1.262       .  A
C301        C302   1.200       .  T
C303        C304   1.200       .  T
C305        C306   1.201       .  T
C307        C308   1.197       .  T
C309        C310   1.341       .  D
C309        H311   1.081       .  S
C310        H312   1.080       .  S
C313        C314   1.214       .  T
C315        C316   1.213       .  T
C317        C318   1.213       .  T
C319        C320   1.217       .  T
C321        C322   1.355       .  D
C321        H323   1.083       .  S
C322        H324   1.083       .  S
N325        C329   1.337       .  A
C326        C327   1.391       .  A
C326        C403   1.484       .  S
C327        C328   1.390       .  A
C327        H330   1.081       .  S
C328        H331   1.081       .  S
N332        C336   1.350       .  A
N332        C333   1.355       .  A
N332        C397   1.410       .  S
C333        C334   1.392       .  A
C333        C402   1.490       .  S
C334        C335   1.379       .  A
C334        H337   1.081       .  S
C335        C336   1.377       .  A
C335        H338   1.082       .  S
C336        C394   1.438       .  S
N339        C343   1.347       .  A
N339        C340   1.349       .  A
N339        C387   1.406       .  S
C340        C341   1.390       .  A
C340        C390   1.479       .  S
C341        C342   1.381       .  A
C341        H344   1.081       .  S
C342        C343   1.378       .  A
C342        H345   1.082       .  S
C343        C388   1.438       .  S
N346        C350   1.344       .  A
N346        C347   1.349       .  A
N346        C385   1.407       .  S
C347        C348   1.390       .  A
C347        C391   1.477       .  S
C348        C349   1.382       .  A
C348        H351   1.081       .  S
C349        C350   1.379       .  A
C349        H352   1.082       .  S
C350        C382   1.434       .  S
O353        C361   1.265       .  A
O354        C362   1.259       .  A
O354       Co374   2.006       .  S
O355        C849   1.265   1_455  A
O355       Co456   2.033       .  S
O356        C364   1.265       .  A
O356       Co376   1.974       .  S
O357        C363   1.255       .  A
O358        C364   1.276       .  A
O358       Co373   2.018       .  S
O359       Co376   2.008       .  S
O360        C847   1.259   1_455  A
O360       Co375   2.017       .  S
C361        C389   1.431       .  S
C361        O846   1.295       .  A
C362        C395   1.431       .  S
C362        O440   1.246       .  A
C363        C386   1.433       .  S
C363        O841   1.264       .  A
C364        C396   1.440       .  S
O365        C378   1.264       .  A
O365       Co373   1.981       .  S
O366        C379   1.274   1_545  A
O366       Co860   2.027   1_445  S
O367       Co375   1.939       .  S
O368       Co376   1.949       .  S
O369        C381   1.274       .  A
O369       Co374   1.904       .  S
O370        C380   1.276       .  A
O370       Co859   2.035   1_455  S
O371        C378   1.267       .  A
O371       Co376   2.003       .  S
O372       Co456   1.939       .  S
Co373       O856   1.908       .  S
Co373       O377   1.931       .  S
Co374       O852   1.971       .  S
Co374       O458   1.928       .  S
Co375       O620   2.172   1_455  S
Co376       O377   2.030       .  S
O377       Co618   2.109   1_565  S
C378        C384   1.434       .  S
C379        C398   1.419       .  S
C380        C400   1.425       .  S
C381        C383   1.426       .  S
C381        O449   1.292       .  A
C382        C383   1.201       .  T
C384        C385   1.206       .  T
C386        C387   1.205       .  T
C388        C389   1.203       .  T
C390        C391   1.342       .  D
C390        H392   1.085       .  S
C391        H393   1.084       .  S
C394        C395   1.204       .  T
C396        C397   1.209       .  T
C398        C399   1.198       .  T
C400        C401   1.203       .  T
C402        C403   1.348       .  D
C402        H404   1.086       .  S
C403        H405   1.085       .  S
N406        C410   1.336       .  A
C407        C408   1.392       .  A
C407        C484   1.480       .  S
C408        C409   1.387       .  A
C408        H411   1.082       .  S
C409        H412   1.082       .  S
N413        C417   1.340       .  A
N413        C414   1.351       .  A
N413        C478   1.402       .  S
C414        C415   1.393       .  A
C414        C483   1.483   1_565  S
C415        C416   1.383       .  A
C415        H418   1.082   1_565  S
C416        C417   1.376       .  A
C416        H419   1.081   1_556  S
C417        C475   1.436       .  S
N420        C424   1.360       .  A
N420        C421   1.362       .  A
N420        C468   1.418       .  S
C421        C422   1.386       .  A
C421        C471   1.491       .  S
C422        C423   1.378       .  A
C422        H425   1.081       .  S
C423        C424   1.379       .  A
C423        H426   1.081       .  S
C424        C469   1.454       .  S
N427        C431   1.358       .  A
N427        C428   1.363       .  A
N427        C466   1.416       .  S
C428        C429   1.390       .  A
C428        C472   1.494       .  S
C429        C430   1.374       .  A
C429        H432   1.081       .  S
C430        C431   1.376       .  A
C430        H433   1.082       .  S
C431        C463   1.446       .  S
O434        C442   1.253       .  A
O435        C443   1.278       .  A
O435       Co455   2.015       .  S
O436        C930   1.246   1_455  A
O437        C445   1.291       .  A
O437       Co457   2.052       .  S
O438        C444   1.251       .  A
O439        C445   1.280       .  A
O439       Co454   1.904       .  S
O440       Co457   1.959       .  S
O441        C928   1.263   1_455  A
O441       Co456   2.027       .  S
C442        C470   1.449       .  S
C442        O927   1.265       .  A
C443        C476   1.426       .  S
C444        C467   1.452       .  S
C444        O922   1.250       .  A
C445        C477   1.430       .  S
O446        C459   1.263       .  A
O446       Co454   2.025       .  S
O447        C460   1.273       .  A
O447       Co941   1.882   1_455  S
O448       Co456   1.936       .  S
O449       Co457   2.056       .  S
O450        C462   1.260       .  A
O450       Co455   1.977       .  S
O451        C461   1.272       .  A
O451       Co940   2.033   1_445  S
O452        C459   1.247       .  A
O452       Co457   1.968       .  S
Co454       O937   2.016   1_565  S
Co454       O458   1.929       .  S
Co455       O933   1.905       .  S
Co456       O701   2.103   1_455  S
Co457       O458   2.108       .  S
O458       Co699   2.028   1_565  S
C459        C465   1.450       .  S
C460        C479   1.426   1_565  S
C461        C481   1.421       .  S
C462        C464   1.442       .  S
C463        C464   1.210       .  T
C465        C466   1.215       .  T
C467        C468   1.217       .  T
C469        C470   1.215       .  T
C471        C472   1.357       .  D
C471        H473   1.083       .  S
C472        H474   1.085       .  S
C475        C476   1.201       .  T
C477        C478   1.203       .  T
C479        C480   1.201       .  T
C481        C482   1.201       .  T
C483        C484   1.346       .  D
C483        H485   1.083       .  S
C484        H486   1.083       .  S
N487        C491   1.360       .  A
N487        C731   1.364       .  A
N487        C804   1.416       .  S
C488        N730   1.364       .  A
C488        C489   1.389       .  A
C488        C565   1.501       .  S
C489        C490   1.378       .  A
C489        H492   1.080       .  S
C490        C734   1.379       .  A
C490        H493   1.083       .  S
C491        C733   1.378       .  A
C491        C806   1.454       .  S
N494        C498   1.363       .  A
N494        C495   1.363       .  A
N494        C559   1.416       .  S
C495        C496   1.388       .  A
C495        C564   1.500       .  S
C496        C497   1.381       .  A
C496        H499   1.081       .  S
C497        C498   1.380       .  A
C497        H500   1.082       .  S
C498        C556   1.462       .  S
N501        C505   1.337       .  A
N501        C502   1.347       .  A
N501        C549   1.396       .  S
C502        C503   1.393       .  A
C502        C552   1.484       .  S
C503        C504   1.389       .  A
C503        H506   1.081       .  S
C504        C505   1.378       .  A
C504        H507   1.081   1_655  S
C505        C550   1.440       .  S
N508        C512   1.336       .  A
N508        C509   1.347       .  A
N508        C547   1.396       .  S
C509        C510   1.393       .  A
C509        C553   1.485       .  S
C510        C511   1.388       .  A
C510        H513   1.081       .  S
C511        C512   1.379       .  A
C511        H514   1.082       .  S
C512        C544   1.438       .  S
O515        C523   1.275       .  A
O515       Co778   2.041   1_545  S
O516        C524   1.254       .  A
O516       Co536   1.989       .  S
O517       Co618   2.060       .  S
O518        C526   1.268       .  A
O518       Co538   2.021       .  S
O519        C525   1.273       .  A
O519       Co779   1.883   1_545  S
O520        C526   1.261       .  A
O520       Co535   1.986       .  S
O521        C686   1.264   1_554  A
O521       Co538   1.948       .  S
O522       Co537   2.039       .  S
C523        C551   1.425       .  S
C524        C557   1.458       .  S
C524        O602   1.259       .  A
C525        C548   1.419       .  S
C526        C558   1.451       .  S
O527        C540   1.278       .  A
O527       Co535   2.009       .  S
O528        C541   1.239       .  A
O529        C785   1.249   1_545  A
O529       Co537   1.976       .  S
O530        C705   1.266   1_554  A
O530       Co538   2.014       .  S
O531        C543   1.273       .  A
O531       Co536   2.031       .  S
O532        C542   1.258       .  A
O533        C540   1.259       .  A
O533       Co538   1.944       .  S
O534        C784   1.246   1_545  A
O534       Co618   1.962       .  S
Co535       O758   1.909       .  S
Co535       O539   1.928       .  S
Co536       O762   1.893       .  S
Co536       O620   1.969       .  S
Co537       O679   1.983   1_554  S
Co537       O696   2.044   1_544  S
Co538       O539   2.032       .  S
O539       Co698   1.919   1_554  S
C540        C546   1.417       .  S
C541        C560   1.453       .  S
C541        O777   1.253       .  A
C542        C562   1.458       .  S
C542        O772   1.268       .  A
C543        C545   1.425       .  S
C543        O611   1.249       .  A
C544        C545   1.202       .  T
C546        C547   1.196       .  T
C548        C549   1.197       .  T
C550        C551   1.203       .  T
C552        C553   1.344       .  D
C552        H554   1.083       .  S
C553        H555   1.083       .  S
C556        C557   1.220       .  T
C558        C559   1.216       .  T
C560        C561   1.217       .  T
C561        N730   1.417       .  S
C562        C563   1.220       .  T
C563        C734   1.462       .  S
C564        C565   1.359       .  D
C564        H566   1.085       .  S
C565        H567   1.085       .  S
N568        C572   1.343       .  A
N568        C812   1.347       .  A
N568        C885   1.402       .  S
C569        N811   1.353       .  A
C569        C570   1.393       .  A
C569        C646   1.487       .  S
C570        C571   1.380       .  A
C570        H573   1.080       .  S
C571        C815   1.376       .  A
C571        H574   1.082       .  S
C572        C814   1.381       .  A
C572        C887   1.440       .  S
N575        C579   1.338       .  A
N575        C576   1.348       .  A
N575        C640   1.401       .  S
C576        C577   1.391       .  A
C576        C645   1.482       .  S
C577        C578   1.389       .  A
C577        H580   1.081       .  S
C578        C579   1.378       .  A
C578        H581   1.081       .  S
C579        C637   1.437       .  S
N582        C586   1.367       .  A
N582        C583   1.364       .  A
N582        C630   1.416       .  S
C583        C584   1.387       .  A
C583        C633   1.503       .  S
C584        C585   1.380       .  A
C584        H587   1.081       .  S
C585        C586   1.380       .  A
C585        H588   1.082       .  S
C586        C631   1.467       .  S
N589        C593   1.357       .  A
N589        C590   1.361       .  A
N589        C628   1.409       .  S
C590        C591   1.389       .  A
C590        C634   1.501       .  S
C591        C592   1.383       .  A
C591        H594   1.081       .  S
C592        C593   1.378       .  A
C592        H595   1.081       .  S
C593        C625   1.459       .  S
O596        C604   1.254       .  A
O596       Co859   1.979   1_545  S
O597        C605   1.274       .  A
O597       Co617   1.910       .  S
O598       Co699   1.981       .  S
O599        C607   1.291       .  A
O599       Co619   2.064       .  S
O600        C606   1.256       .  A
O600       Co860   1.986   1_545  S
O601        C607   1.273       .  A
O601       Co616   1.893       .  S
O602       Co619   2.019       .  S
O603       Co618   1.957       .  S
C604        C632   1.465       .  S
C605        C638   1.428       .  S
C605        O683   1.288       .  A
C606        C629   1.451       .  S
C607        C639   1.425       .  S
O608        C621   1.246       .  A
O608       Co616   1.977       .  S
O609        C622   1.272       .  A
O610        C866   1.293   1_545  A
O610       Co618   2.060       .  S
O611       Co619   1.938       .  S
O612        C624   1.241       .  A
O612       Co617   1.968       .  S
O613        C623   1.244       .  A
O614        C621   1.249       .  A
O614       Co619   1.987       .  S
O615        C865   1.268   1_545  A
O615       Co699   2.003       .  S
Co616       O839   1.984       .  S
Co616       O620   1.968       .  S
Co617       O843   1.978       .  S
Co617       O701   1.948       .  S
Co619       O620   2.173       .  S
C621        C627   1.440       .  S
C622        C641   1.439       .  S
C622        O858   1.256       .  A
C623        C643   1.424       .  S
C623        O853   1.252       .  A
C624        C626   1.454       .  S
C624        O692   1.257       .  A
C625        C626   1.217       .  T
C627        C628   1.209       .  T
C629        C630   1.216       .  T
C631        C632   1.224       .  T
C633        C634   1.359       .  D
C633        H635   1.084       .  S
C634        H636   1.084       .  S
C637        C638   1.203       .  T
C639        C640   1.200       .  T
C641        C642   1.209       .  T
C642        N811   1.411       .  S
C643        C644   1.200       .  T
C644        C815   1.432       .  S
C645        C646   1.346       .  D
C645        H647   1.083       .  S
C646        H648   1.085       .  S
N649        C653   1.340   1_565  A
N649        C893   1.350       .  A
N649        C966   1.400       .  S
C650        N892   1.348       .  A
C650        C651   1.391       .  A
C650        C727   1.479       .  S
C651        C652   1.385       .  A
C651        H654   1.082       .  S
C652        C896   1.377       .  A
C652        H655   1.081       .  S
C653        C895   1.375       .  A
C653        C968   1.437       .  S
N656        C660   1.340       .  A
N656        C657   1.349       .  A
N656        C721   1.403       .  S
C657        C658   1.392       .  A
C657        C726   1.480       .  S
C658        C659   1.384       .  A
C658        H661   1.081       .  S
C659        C660   1.378       .  A
C659        H662   1.082       .  S
C660        C718   1.435       .  S
N663        C667   1.358       .  A
N663        C664   1.359       .  A
N663        C711   1.412       .  S
C664        C665   1.388       .  A
C664        C714   1.494       .  S
C665        C666   1.381       .  A
C665        H668   1.081       .  S
C666        C667   1.378       .  A
C666        H669   1.081       .  S
C667        C712   1.453       .  S
N670        C674   1.356       .  A
N670        C671   1.359       .  A
N670        C709   1.410       .  S
C671        C672   1.390       .  A
C671        C715   1.495       .  S
C672        C673   1.380       .  A
C672        H675   1.081       .  S
C673        C674   1.378       .  A
C673        H676   1.081   1_556  S
C674        C706   1.453       .  S
O677        C685   1.254       .  A
O677       Co940   1.983   1_545  S
O678        C686   1.283       .  A
O678       Co698   2.022       .  S
O680        C688   1.293       .  A
O680       Co700   2.073       .  S
O681        C687   1.251       .  A
O681       Co941   1.997   1_545  S
O682        C688   1.273       .  A
O682       Co697   1.893       .  S
O683       Co700   2.050       .  S
O684       Co699   2.012       .  S
C685        C713   1.448       .  S
C686        C719   1.425       .  S
C687        C710   1.445       .  S
C688        C720   1.430       .  S
O689        C702   1.245       .  A
O689       Co697   1.971       .  S
O690        C703   1.273       .  A
O691        C947   1.263       .  A
O691       Co699   1.958       .  S
O692       Co700   2.027       .  S
O693        C705   1.261       .  A
O693       Co698   1.985       .  S
O694        C704   1.274       .  A
O695        C702   1.251       .  A
O695       Co700   1.996       .  S
O696        C946   1.290       .  A
Co697       O920   1.997       .  S
Co697       O701   1.959       .  S
Co698       O924   2.014       .  S
Co700       O701   2.244       .  S
C702        C708   1.441       .  S
C703        C722   1.428       .  S
C703        O939   1.297       .  A
C704        C724   1.422       .  S
C704        O934   1.254       .  A
C705        C707   1.447       .  S
C706        C707   1.213       .  T
C708        C709   1.210       .  T
C710        C711   1.212       .  T
C712        C713   1.214       .  T
C714        C715   1.354       .  D
C714        H716   1.082       .  S
C715        H717   1.083       .  S
C718        C719   1.201       .  T
C720        C721   1.203       .  T
C722        C723   1.202       .  T
C723        N892   1.402       .  S
C724        C725   1.200       .  T
C725        C896   1.434       .  S
C726        C727   1.344       .  D
C726        H728   1.084       .  S
C727        H729   1.084       .  S
N730        C734   1.365       .  A
C731        C732   1.390   1_565  A
C731        C808   1.500       .  S
C732        C733   1.378   1_545  A
C732        H735   1.081       .  S
C733        H736   1.083   1_565  S
N737        C741   1.364   1_565  A
N737        C738   1.364   1_565  A
N737        C802   1.417       .  S
C738        C739   1.387       .  A
C738        C807   1.498       .  S
C739        C740   1.380       .  A
C739        H742   1.082       .  S
C740        C741   1.379       .  A
C740        H743   1.081       .  S
C741        C799   1.462   1_545  S
N744        C748   1.337       .  A
N744        C745   1.346       .  A
N744        C792   1.400       .  S
C745        C746   1.393       .  A
C745        C795   1.481       .  S
C746        C747   1.387       .  A
C746        H749   1.081       .  S
C747        C748   1.377       .  A
C747        H750   1.081       .  S
C748        C793   1.433       .  S
N751        C755   1.336       .  A
N751        C752   1.345       .  A
N751        C790   1.396       .  S
C752        C753   1.392       .  A
C752        C796   1.481       .  S
C753        C754   1.389       .  A
C753        H756   1.081       .  S
C754        C755   1.379       .  A
C754        H757   1.082       .  S
C755        C787   1.439       .  S
O758        C766   1.282       .  A
O759        C767   1.253   1_545  A
O759       Co779   1.976   1_545  S
O760       Co861   2.056       .  S
O761        C769   1.252       .  A
O761       Co781   1.988       .  S
O762        C768   1.274       .  A
O763        C769   1.250       .  A
O763       Co778   1.995       .  S
O764        C929   1.249   1_554  A
O764       Co781   1.931       .  S
O765       Co780   1.935   1_554  S
C766        C794   1.422       .  S
C767        C800   1.459       .  S
C767        O845   1.263       .  A
C768        C791   1.424       .  S
C769        C801   1.452       .  S
O770        C783   1.272       .  A
O770       Co778   1.875       .  S
O771        C784   1.265       .  A
O772       Co780   2.034   1_554  S
O773        C948   1.269       .  A
O773       Co781   2.046       .  S
O774        C786   1.273       .  A
O774       Co779   2.039       .  S
O775        C785   1.260       .  A
O776        C783   1.291       .  A
O776       Co781   2.067       .  S
O777       Co861   2.025       .  S
Co778       O782   1.994       .  S
Co779       O863   1.979       .  S
Co780       O922   1.983       .  S
Co780       O939   2.088       .  S
Co781       O782   2.119       .  S
O782       Co941   1.999   1_554  S
C783        C789   1.418       .  S
C784        C803   1.451       .  S
C785        C805   1.449       .  S
C786        C788   1.425       .  S
C786        O854   1.247       .  A
C787        C788   1.203       .  T
C789        C790   1.196       .  T
C791        C792   1.200       .  T
C793        C794   1.200       .  T
C795        C796   1.341       .  D
C795        H797   1.086       .  S
C796        H798   1.085       .  S
C799        C800   1.220       .  T
C801        C802   1.217       .  T
C803        C804   1.216       .  T
C805        C806   1.215       .  T
C807        C808   1.361   1_545  D
C807        H809   1.080       .  S
C808        H810   1.081       .  S
N811        C815   1.347       .  A
C812        C813   1.390       .  A
C812        C889   1.481       .  S
C813        C814   1.388       .  A
C813        H816   1.082       .  S
C814        H817   1.082       .  S
N818        C822   1.338       .  A
N818        C819   1.346       .  A
N818        C883   1.399       .  S
C819        C820   1.394       .  A
C819        C888   1.484       .  S
C820        C821   1.386       .  A
C820        H823   1.081       .  S
C821        C822   1.375       .  A
C821        H824   1.081       .  S
C822        C880   1.434       .  S
N825        C829   1.364       .  A
N825        C826   1.358       .  A
N825        C873   1.415       .  S
C826        C827   1.387       .  A
C826        C876   1.493       .  S
C827        C828   1.379       .  A
C827        H830   1.081       .  S
C828        C829   1.380       .  A
C828        H831   1.082       .  S
C829        C874   1.459       .  S
N832        C836   1.353       .  A
N832        C833   1.354       .  A
N832        C871   1.407       .  S
C833        C834   1.389       .  A
C833        C877   1.491       .  S
C834        C835   1.382       .  A
C834        H837   1.081       .  S
C835        C836   1.377       .  A
C835        H838   1.080       .  S
C836        C868   1.449       .  S
O839        C847   1.254       .  A
O840        C848   1.272       .  A
O840       Co860   1.892       .  S
O841       Co942   2.012       .  S
O842        C850   1.290       .  A
O842       Co862   2.064       .  S
O843        C849   1.251       .  A
O844        C850   1.273       .  A
O844       Co859   1.884       .  S
O845       Co862   2.032       .  S
O846       Co861   2.082       .  S
C847        C875   1.456       .  S
C848        C881   1.425       .  S
C848        O926   1.290       .  A
C849        C872   1.449       .  S
C850        C882   1.423       .  S
O851        C864   1.244       .  A
O851       Co859   1.973       .  S
O852        C865   1.263       .  A
O853       Co861   1.987       .  S
O854       Co862   1.935       .  S
O855        C867   1.242       .  A
O855       Co860   1.966       .  S
O856        C866   1.276       .  A
O857        C864   1.247       .  A
O857       Co862   1.981       .  S
O858       Co942   1.963       .  S
Co859       O863   1.983       .  S
Co860       O944   1.964       .  S
Co862       O863   2.156       .  S
C864        C870   1.436       .  S
C865        C884   1.427       .  S
C866        C886   1.433       .  S
C867        C869   1.443       .  S
C867        O935   1.253       .  A
C868        C869   1.211       .  T
C870        C871   1.207       .  T
C872        C873   1.215       .  T
C874        C875   1.219       .  T
C876        C877   1.348       .  D
C876        H878   1.083       .  S
C877        H879   1.083       .  S
C880        C881   1.201       .  T
C882        C883   1.199       .  T
C884        C885   1.202       .  T
C886        C887   1.205       .  T
C888        C889   1.341       .  D
C888        H890   1.083       .  S
C889        H891   1.082       .  S
N892        C896   1.339       .  A
C893        C894   1.393       .  A
C893        C970   1.485       .  S
C894        C895   1.384   1_565  A
C894        H897   1.081   1_565  S
C895        H898   1.081       .  S
N899        C903   1.336       .  A
N899        C900   1.347       .  A
N899        C964   1.400       .  S
C900        C901   1.392       .  A
C900        C969   1.481       .  S
C901        C902   1.388       .  A
C901        H904   1.081       .  S
C902        C903   1.379       .  A
C902        H905   1.082   1_556  S
C903        C961   1.436       .  S
N906        C910   1.363       .  A
N906        C907   1.365       .  A
N906        C954   1.411       .  S
C907        C908   1.388       .  A
C907        C957   1.505       .  S
C908        C909   1.381       .  A
C908        H911   1.081       .  S
C909        C910   1.377       .  A
C909        H912   1.080       .  S
C910        C955   1.466       .  S
N913        C917   1.364       .  A
N913        C914   1.365       .  A
N913        C952   1.416       .  S
C914        C915   1.388       .  A
C914        C958   1.504       .  S
C915        C916   1.381       .  A
C915        H918   1.081       .  S
C916        C917   1.379       .  A
C916        H919   1.082   1_556  S
C917        C949   1.465       .  S
O920        C928   1.258       .  A
O921        C929   1.275       .  A
O921       Co941   2.041       .  S
O923        C931   1.289       .  A
O923       Co943   2.058       .  S
O924        C930   1.257       .  A
O925        C931   1.273       .  A
O925       Co940   1.897       .  S
O926       Co943   2.063       .  S
O927       Co942   2.032       .  S
C928        C956   1.462       .  S
C929        C962   1.420       .  S
C930        C953   1.444       .  S
C931        C963   1.425       .  S
O932        C945   1.245       .  A
O932       Co940   1.975       .  S
O933        C946   1.280       .  A
O934       Co942   1.948       .  S
O935       Co943   2.002       .  S
O936        C948   1.254   1_556  A
O936       Co941   1.964       .  S
O937        C947   1.278       .  A
O938        C945   1.254       .  A
O938       Co943   2.011       .  S
Co940       O944   1.961       .  S
Co943       O944   2.229       .  S
C945        C951   1.451       .  S
C946        C965   1.425       .  S
C947        C967   1.427       .  S
C948        C950   1.461   1_554  S
C949        C950   1.222       .  T
C951        C952   1.216       .  T
C953        C954   1.211       .  T
C955        C956   1.222       .  T
C957        C958   1.363       .  D
C957        H959   1.083       .  S
C958        H960   1.083       .  S
C961        C962   1.201       .  T
C963        C964   1.200       .  T
C965        C966   1.200       .  T
C967        C968   1.202       .  T
C969        C970   1.345       .  D
C969        H971   1.083       .  S
C970        H972   1.084       .  S
