geometry optimzed in LAMMPS
_audit_creation_date              2020-11-30 
_audit_creation_method            'lammps2cif' 
_symmetry_space_group_name_H-M    'P1' 
_symmetry_Int_Tables_number       1 
_symmetry_cell_setting            triclinic 
loop_ 
_symmetry_equiv_pos_as_xyz 
  x,y,z 
_cell_length_a                    40.7428803 
_cell_length_b                    40.42747021574363 
_cell_length_c                    28.28836823927678 
_cell_angle_alpha                 89.81518115560326 
_cell_angle_beta                  88.5918327471414 
_cell_angle_gamma                 120.46352602006341 
loop_ 
_atom_site_label 
_atom_site_type_symbol 
_atom_site_fract_x 
_atom_site_fract_y 
_atom_site_fract_z 
_atom_site_charge 
N1          N  0.79364515  0.19497157  0.51828685    -0.02900
C2          C  0.76198474  0.18396977  0.49271881    -0.00400
C3          C  0.74881455  0.20916717  0.49874943    -0.23200
C4          C  0.77425802  0.23779341  0.02797039    -0.23400
C5          C  0.80144021  0.22856318  0.03938810    -0.00500
H6          H  0.72413166  0.20751046  0.48287598     0.13300
H7          H  0.77275800  0.26249043  0.03957590     0.13400
N8          N  0.25386650  0.42422493  0.96704314    -0.02900
C9          C  0.28839116  0.44434827  0.98678811    -0.00400
C10         C  0.30597756  0.48270213  0.97389088    -0.23200
C11         C  0.28295368  0.48626128  0.44405189    -0.23400
C12         C  0.25144155  0.45005577  0.43993380    -0.00500
H13         H  0.33328588  0.50555425  0.98522506     0.13300
H14         H  0.28741969  0.51270976  0.42827150     0.13400
N15         N  0.45976264  0.21504056  0.04490053    -0.02900
C16         C  0.48640305  0.20970532  0.06619785    -0.00400
C17         C  0.52173418  0.24274926  0.06241228    -0.23200
C18         C  0.51652957  0.26969617  0.54004289    -0.23400
C19         C  0.47852757  0.25203138  0.52921774    -0.00500
H20         H  0.54834428  0.24672433  0.07503195     0.13300
H21         H  0.53854082  0.29872959  0.53064718     0.13400
N22         N  0.24407147  0.76026689  0.98992515    -0.02900
C23         C  0.23157633  0.72595725  0.01280407    -0.00400
C24         C  0.26184206  0.72011238  0.01939761    -0.23200
C25         C  0.29294178  0.75040015  0.49794260    -0.23400
C26         C  0.28143279  0.77467564  0.48055490    -0.00500
H27         H  0.26097191  0.69600888  0.03740842     0.13300
H28         H  0.32143028  0.75473292  0.49608814     0.13400
N29         N  0.79578854  0.53158204  0.51516313    -0.02900
C30         C  0.80490414  0.50917821  0.48885316    -0.00400
C31         C  0.77738283  0.47094762  0.49488914    -0.23200
C32         C  0.75032013  0.46936041  0.02956269    -0.23400
C33         C  0.76242598  0.50698012  0.04071527    -0.00500
H34         H  0.77713650  0.44668333  0.47847138     0.13300
H35         H  0.72497614  0.44399708  0.04322917     0.13400
N36         N  0.58209319  0.77256738  0.44852697    -0.02900
C37         C  0.55567268  0.74043988  0.42671627    -0.00400
C38         C  0.52168533  0.74024329  0.42459084    -0.23200
C39         C  0.52689185  0.77191509  0.94702341    -0.23400
C40         C  0.56392544  0.79110216  0.96213568    -0.00500
H41         H  0.49553693  0.71840951  0.40936299     0.13300
H42         H  0.50529484  0.77951761  0.95377496     0.13400
O43         O  0.97245544  0.91135405  0.46764538    -0.87800
C44         C  0.95897487  0.97456480  0.07060112     0.88200
Mg45       Mg  0.01493414  0.89489308  0.47071983     1.58100
O46         O  0.00400516  0.02699954  0.46621977    -0.87500
O47         O  0.95597170  0.94382291  0.42163989    -0.74900
C48         C  0.17495495  0.05359487  0.02651395     0.93300
O49         O  0.98556185  0.90950768  0.07844229    -0.74700
O50         O  0.15812648  0.01727916  0.03104678    -0.82200
Mg51       Mg  0.93710474  0.89931055  0.02980657     1.58000
C52         C  0.10259452  0.13580111  0.47607527     0.93200
O53         O  0.88217901  0.88331242  0.49014568    -0.80500
H54         H  0.00446889  0.03486224  0.39633768    -0.05800
C55         C  0.07422081  0.03610552  0.07188280     0.88100
O56         O  0.05635861  0.94602696  0.42276190    -0.75000
O57         O  0.95423108  0.95958697  0.03145448    -0.87700
O58         O  0.06752694  0.11777628  0.48938670    -0.80500
C59         C  0.94431001  0.05891619  0.01843628     0.93300
C60         C  0.86463172  0.90067610  0.47880625     0.93200
Mg61       Mg  0.10337441  0.05530198  0.47059191     1.58000
O62         O  0.15752986  0.07027098  0.01172729    -0.80500
O63         O  0.05510118  0.04534327  0.42133093    -0.74700
O64         O  0.92837156  0.02364973  0.00722332    -0.80500
O65         O  0.91950179  0.83581447  0.02910843    -0.82300
O66         O  0.11234641  0.93131617  0.49286941    -0.80600
C67         C  0.02037869  0.03598277  0.42692249     0.87600
O68         O  0.08648597  0.99542979  0.46862820    -0.87700
O69         O  0.06744499  0.04372381  0.03221870    -0.87800
O70         O  0.08316698  0.01054522  0.07825770    -0.74900
Mg71       Mg  0.94447645  0.98319481  0.46919320     1.58000
O72         O  0.98012574  0.07874443  0.02438851    -0.82300
H73         H  0.96714223  0.90308562  0.39796052    -0.06000
O74         O  0.03626175  0.92822984  0.03279551    -0.87500
H75         H  0.03643474  0.92001725  0.10248050    -0.05800
H76         H  0.09821909  0.99849706  0.39917416    -0.06000
C77         C  0.02021966  0.91894198  0.07224386     0.87600
C78         C  0.96497683  0.91834109  0.42807796     0.88200
C79         C  0.08148482  0.98086209  0.42919070     0.88200
H80         H  0.07153304  0.05092031  0.10214691    -0.06000
O81         O  0.98352762  0.00971608  0.07643214    -0.75000
Mg82       Mg  0.09559222  0.97145746  0.03117290     1.58000
H83         H  0.94234952  0.95715023  0.10081012    -0.06000
C84         C  0.93905954  0.81949829  0.02349647     0.93200
O85         O  0.05944817  0.87734424  0.47443067    -0.82200
C86         C  0.09511670  0.89615208  0.48086088     0.93200
O87         O  0.88178331  0.93697104  0.47292300    -0.82200
Mg88       Mg  0.02522843  0.06092097  0.02834986     1.58200
O89         O  0.97385181  0.83834176  0.00930818    -0.80500
O90         O  0.12141748  0.11862165  0.47140961    -0.82200
C91         C  0.05161824  0.48010692  0.27884178     0.87000
C92         C  0.02421637  0.48542998  0.31152413    -0.53200
C93         C  0.99842707  0.49094590  0.28852812     0.09900
C94         C  0.00178534  0.49027659  0.23418355     0.20900
C95         C  0.02671770  0.44761973  0.24566094    -0.53900
C96         C  0.99893780  0.45103227  0.22347484     0.10000
C97         C  0.06950401  0.51528792  0.24542480    -0.53500
C98         C  0.04392578  0.52137285  0.22250834     0.10600
H99         H  0.02563529  0.48564161  0.34984041     0.15100
H100        H  0.98081349  0.49572720  0.21739365     0.00900
H101        H  0.03129411  0.42368175  0.24041629     0.15400
H102        H  0.09979111  0.53344632  0.23807168     0.15200
C103        C  0.54289950  0.95805173  0.20640525     0.87000
C104        C  0.53476099  0.98733329  0.18308809    -0.53200
C105        C  0.52706171  0.00852750  0.21399482     0.09900
C106        C  0.52868299  0.99893848  0.26651830     0.20900
C107        C  0.57506588  0.98115047  0.24056167    -0.53900
C108        C  0.56787565  0.00229523  0.27217542     0.10000
C109        C  0.50764072  0.93428360  0.23985631    -0.53500
C110        C  0.50013239  0.95550185  0.27132331     0.10600
H111        H  0.53419980  0.99039551  0.14498548     0.15100
H112        H  0.52319468  0.01650675  0.29201381     0.00900
H113        H  0.60142119  0.98054227  0.23999207     0.15400
H114        H  0.48984250  0.90336397  0.24034039     0.15200
C115        C  0.47290800  0.45222602  0.21457699     0.87000
C116        C  0.50950342  0.45462746  0.19507940    -0.53200
C117        C  0.53794413  0.46712624  0.22666238     0.09900
C118        C  0.52695129  0.47482206  0.27611917     0.20900
C119        C  0.46225108  0.42540878  0.25816211    -0.53900
C120        C  0.48990539  0.43730849  0.29081428     0.10000
C121        C  0.48559004  0.49193589  0.23559290    -0.53500
C122        C  0.51438532  0.50432725  0.26703411     0.10600
H123        H  0.51328428  0.44850168  0.15864712     0.15100
H124        H  0.55015081  0.48427129  0.30171674     0.00900
H125        H  0.43644546  0.39795654  0.26273983     0.15400
H126        H  0.47225871  0.50845156  0.22666916     0.15200
C127        C  0.62232821  0.78648490  0.45059195    -0.11400
C128        C  0.64895961  0.82093650  0.42717342     0.04000
C129        C  0.68793387  0.83527798  0.43156607    -0.12000
C130        C  0.70122001  0.81577357  0.45897111     0.18900
C131        C  0.67498396  0.78054869  0.98047035    -0.09000
C132        C  0.63581318  0.76573106  0.97534733    -0.02000
H133        H  0.70809219  0.86216225  0.41398920     0.05400
C134        C  0.74273028  0.83478415  0.46649981     0.20900
H135        H  0.61554577  0.73883302  0.99273977     0.10600
C136        C  0.76003836  0.86851567  0.99195334    -0.15400
C137        C  0.79950061  0.88993806  0.99653622     0.03600
C138        C  0.82272729  0.87808853  0.47467028    -0.10700
C139        C  0.80563278  0.84362356  0.44956967    -0.00700
C140        C  0.76592460  0.82209651  0.44509812    -0.05900
H141        H  0.74240265  0.87825787  0.00898442     0.06600
H142        H  0.82325045  0.83386399  0.43257124     0.10000
Br143      Br  0.69069354  0.75329666  0.02093197    -0.05600
Br144      Br  0.63351240  0.84858973  0.38704033    -0.02500
Br145      Br  0.81924370  0.93339352  0.03727008     0.00300
Br146      Br  0.74483911  0.77669469  0.40778175    -0.04000
C147        C  0.57783702  0.82425369  0.99432722    -0.11400
C148        C  0.58704481  0.82180355  0.04153869     0.04000
C149        C  0.58870257  0.84823302  0.07473167    -0.12000
C150        C  0.57968379  0.87628319  0.06238523     0.18900
C151        C  0.57289939  0.88033336  0.01473407    -0.09000
C152        C  0.57233216  0.85464476  0.98122170    -0.02000
H153        H  0.59366856  0.84472558  0.11138032     0.05400
C154        C  0.57160387  0.89667568  0.10038620     0.20900
H155        H  0.56482558  0.85704675  0.44569218     0.10600
C156        C  0.59470142  0.93642676  0.10489617    -0.15400
C157        C  0.58599851  0.95637284  0.13874848     0.03600
C158        C  0.55341776  0.93643744  0.16976227    -0.10700
C159        C  0.53085127  0.89626892  0.16492868    -0.00700
C160        C  0.53955778  0.87663490  0.13098768    -0.05900
H161        H  0.61940252  0.95214988  0.08138397     0.06600
H162        H  0.50551870  0.87908324  0.18646249     0.10000
Br163      Br  0.55927723  0.91712957  0.99481367    -0.05600
Br164      Br  0.59043989  0.77927909  0.06543015    -0.02500
Br165      Br  0.61989196  0.01106393  0.13945123     0.00300
Br166      Br  0.50523137  0.82230640  0.12627394    -0.04000
C167        C  0.53099033  0.54205225  0.29123954    -0.11400
C168        C  0.53896035  0.57629927  0.26742062     0.04000
C169        C  0.55014705  0.60982392  0.29277819    -0.12000
C170        C  0.55565103  0.61097623  0.34157822     0.18900
C171        C  0.55104030  0.57782228  0.36473065    -0.09000
C172        C  0.53842779  0.54374419  0.33971513    -0.02000
H173        H  0.55373947  0.63501412  0.27429343     0.05400
C174        C  0.56075323  0.64495164  0.36812902     0.20900
H175        H  0.53346569  0.51821631  0.35866408     0.10600
C176        C  0.53326207  0.63914444  0.40306365    -0.15400
C177        C  0.53303928  0.67001629  0.42458226     0.03600
C178        C  0.56009793  0.70801776  0.41038497    -0.10700
C179        C  0.58874417  0.71414026  0.37691427    -0.00700
C180        C  0.58937565  0.68298204  0.35594901    -0.05900
H181        H  0.51092114  0.61026512  0.41268014     0.06600
H182        H  0.60980185  0.74310364  0.36572231     0.10000
Br183      Br  0.56185925  0.57771615  0.43037700    -0.05600
Br184      Br  0.53768504  0.58063073  0.20014492    -0.02500
Br185      Br  0.49534960  0.65777095  0.97260798     0.00300
Br186      Br  0.62973385  0.69389388  0.31089500    -0.04000
C187        C  0.81710772  0.57248290  0.01962512    -0.11400
C188        C  0.82108972  0.59698604  0.48098686     0.04000
C189        C  0.84278164  0.63686328  0.48551998    -0.12000
C190        C  0.86128369  0.65315337  0.02752942     0.18900
C191        C  0.85656245  0.62905835  0.06638200    -0.09000
C192        C  0.83435600  0.58908195  0.06229469    -0.02000
H193        H  0.84503262  0.65523840  0.45614239     0.05400
C194        C  0.88347284  0.69566463  0.03052936     0.20900
H195        H  0.83100576  0.57074304  0.09222091     0.10600
C196        C  0.86873182  0.71442278  0.55849343    -0.15400
C197        C  0.88685459  0.75463335  0.55858807     0.03600
C198        C  0.92068195  0.77702061  0.02976778    -0.10700
C199        C  0.93566720  0.75783098  0.00352144    -0.00700
C200        C  0.91735729  0.71771667  0.00353740    -0.05900
H201        H  0.84258362  0.69757884  0.57923142     0.06600
H202        H  0.96116666  0.77401351  0.98144930     0.10000
Br203      Br  0.88117250  0.64941147  0.12489055    -0.05600
Br204      Br  0.79546292  0.57720001  0.42303622    -0.02500
Br205      Br  0.86453096  0.77675646  0.59853260     0.00300
Br206      Br  0.93960901  0.69428382  0.96583864    -0.04000
C207        C  0.74007056  0.51726598  0.07291517    -0.11400
C208        C  0.71064889  0.52201921  0.05534226     0.04000
C209        C  0.68193190  0.51932536  0.08613852    -0.12000
C210        C  0.68174703  0.51132912  0.13445154     0.18900
C211        C  0.71223547  0.50871310  0.15248750    -0.09000
C212        C  0.74117116  0.51175649  0.12173667    -0.02000
H213        H  0.65834863  0.52097825  0.07188718     0.05400
C214        C  0.64712157  0.50063179  0.16380350     0.20900
H215        H  0.76312649  0.50711179  0.13549764     0.10600
C216        C  0.62007603  0.46154998  0.17070812    -0.15400
C217        C  0.58509166  0.45002279  0.19386620     0.03600
C218        C  0.57696352  0.47779705  0.21100493    -0.10700
C219        C  0.60465073  0.51685630  0.20601906    -0.00700
C220        C  0.63946234  0.52840743  0.18216799    -0.05900
H221        H  0.62573707  0.43997678  0.15663368     0.06600
H222        H  0.59834666  0.53843349  0.21841223     0.10000
Br223      Br  0.71376688  0.49816199  0.21827066    -0.05600
Br224      Br  0.70579877  0.52726007  0.98892400    -0.02500
Br225      Br  0.54872753  0.39615730  0.20026486     0.00300
Br226      Br  0.67505096  0.58220605  0.17357712    -0.04000
C227        C  0.83932119  0.52174675  0.45847937    -0.11400
C228        C  0.87338912  0.52760183  0.47762175     0.04000
C229        C  0.90158840  0.52786244  0.44790205    -0.12000
C230        C  0.89646370  0.52274523  0.39894030     0.18900
C231        C  0.86351338  0.51968364  0.37958280    -0.09000
C232        C  0.83506851  0.51853267  0.40938599    -0.02000
H233        H  0.92660885  0.52992301  0.46336488     0.05400
C234        C  0.92304849  0.51583359  0.36955865     0.20900
H235        H  0.80861879  0.51306926  0.39434024     0.10600
C236        C  0.90910150  0.47981904  0.34859113    -0.15400
C237        C  0.93304567  0.47154382  0.32124309     0.03600
C238        C  0.97173453  0.49947061  0.31458629    -0.10700
C239        C  0.98592457  0.53530966  0.33594868    -0.00700
C240        C  0.96194461  0.54366658  0.36327295    -0.05900
H241        H  0.87945829  0.45783237  0.35406200     0.06600
H242        H  0.01583424  0.55679058  0.33150472     0.10000
Br243      Br  0.85542127  0.51554112  0.31277817    -0.05600
Br244      Br  0.88149019  0.53427522  0.04352150    -0.02500
Br245      Br  0.91214840  0.42108375  0.29595600     0.00300
Br246      Br  0.98341061  0.59357047  0.39045187    -0.04000
C247        C  0.11673515  0.87582270  0.47691476    -0.11400
C248        C  0.10490245  0.84135755  0.00170069     0.04000
C249        C  0.12647991  0.82330552  0.99948806    -0.12000
C250        C  0.15990558  0.83881052  0.47258495     0.18900
C251        C  0.17183748  0.87299699  0.44637425    -0.09000
C252        C  0.15054267  0.89149995  0.44918234    -0.02000
H253        H  0.11727808  0.79731624  0.02022636     0.05400
C254        C  0.18292747  0.81980251  0.47399757     0.20900
H255        H  0.16021211  0.91798691  0.42936831     0.10600
C256        C  0.16941781  0.78400992  0.45273142    -0.15400
C257        C  0.18906706  0.76397734  0.45661325     0.03600
C258        C  0.22277465  0.77968437  0.48244074    -0.10700
C259        C  0.23694868  0.81623038  0.00355793    -0.00700
C260        C  0.21722123  0.83604798  0.99948739    -0.05900
H261        H  0.14334907  0.77153281  0.43324786     0.06600
H262        H  0.26249991  0.82849624  0.02401693     0.10000
Br263      Br  0.21650978  0.89485982  0.40567045    -0.05600
Br264      Br  0.06063266  0.81904209  0.04331342    -0.02500
Br265      Br  0.16933803  0.71610686  0.42474649     0.00300
Br266      Br  0.23615284  0.88358898  0.03208990    -0.04000
C267        C  0.19246996  0.69835077  0.03184808    -0.11400
C268        C  0.17674159  0.65856606  0.02515460     0.04000
C269        C  0.14556509  0.63200048  0.05306239    -0.12000
C270        C  0.12771787  0.64386137  0.08640438     0.18900
C271        C  0.14088063  0.68361168  0.08943026    -0.09000
C272        C  0.17333642  0.71046637  0.06284235    -0.02000
H273        H  0.13628259  0.60183860  0.04993668     0.05400
C274        C  0.09951657  0.61480436  0.12136948     0.20900
H275        H  0.18458733  0.74081128  0.06816148     0.10600
C276        C  0.10644046  0.62113021  0.16986641    -0.15400
C277        C  0.08548812  0.59207493  0.20367974     0.03600
C278        C  0.05791348  0.55492763  0.18939254    -0.10700
C279        C  0.04956455  0.54900566  0.14133289    -0.00700
C280        C  0.06936312  0.57864381  0.10755575    -0.05900
H281        H  0.12959986  0.64830004  0.18155177     0.06600
H282        H  0.02941277  0.52064107  0.12944285     0.10000
Br283      Br  0.11579254  0.70275098  0.12952349    -0.05600
Br284      Br  0.19684999  0.63862964  0.97836049    -0.02500
Br285      Br  0.09699103  0.60427805  0.26902731     0.00300
Br286      Br  0.05441513  0.56779187  0.04301135    -0.04000
C287        C  0.46903497  0.93672785  0.30846254    -0.11400
C288        C  0.44167718  0.94783955  0.31756485     0.04000
C289        C  0.41053761  0.92582729  0.34876926    -0.12000
C290        C  0.40630450  0.89309705  0.37188333     0.18900
C291        C  0.43437343  0.88299618  0.36450884    -0.09000
C292        C  0.46526508  0.90469904  0.33327210    -0.02000
H293        H  0.38902885  0.93376750  0.35421673     0.05400
C294        C  0.37127786  0.86796772  0.40076640     0.20900
H295        H  0.48615278  0.89595249  0.32758660     0.10600
C296        C  0.33855176  0.84062159  0.37794439    -0.15400
C297        C  0.30721369  0.81177120  0.40386041     0.03600
C298        C  0.30804299  0.81029514  0.45356593    -0.10700
C299        C  0.33993619  0.83910139  0.47647644    -0.00700
C300        C  0.37135266  0.86783433  0.45052517    -0.05900
H301        H  0.33836742  0.84024513  0.33965373     0.06600
H302        H  0.34229539  0.83832764  0.01592544     0.10000
Br303      Br  0.43074116  0.83855925  0.39450566    -0.05600
Br304      Br  0.44315845  0.99077596  0.28656038    -0.02500
Br305      Br  0.26646358  0.77210632  0.36937189     0.00300
Br306      Br  0.41485626  0.90470562  0.48411714    -0.04000
C307        C  0.21646784  0.07733233  0.03575773    -0.11400
C308        C  0.23656172  0.06348121  0.06169419     0.04000
C309        C  0.27618737  0.08619143  0.06543941    -0.12000
C310        C  0.29658437  0.12279181  0.04421357     0.18900
C311        C  0.27650552  0.13667348  0.51912107    -0.09000
C312        C  0.23695732  0.11425489  0.51556086    -0.02000
H313        H  0.29125886  0.07521822  0.08508765     0.05400
C314        C  0.33863017  0.14536106  0.04745475     0.20900
H315        H  0.22258659  0.12558811  0.49514230     0.10600
C316        C  0.36074389  0.13240123  0.52459733    -0.15400
C317        C  0.40063777  0.15422713  0.52471528     0.03600
C318        C  0.41896943  0.19006550  0.04678778    -0.10700
C319        C  0.39661909  0.20224327  0.07107996    -0.00700
C320        C  0.35686620  0.17983685  0.07256268    -0.05900
H321        H  0.34705402  0.10559999  0.50578186     0.06600
H322        H  0.41038246  0.22917416  0.08958648     0.10000
Br323      Br  0.30231686  0.18543115  0.48632520    -0.05600
Br324      Br  0.21228376  0.01451778  0.09405554    -0.02500
Br325      Br  0.42854630  0.13451215  0.49170165     0.00300
Br326      Br  0.32872835  0.19663558  0.11085977    -0.04000
C327        C  0.51502513  0.03553118  0.19725634    -0.11400
C328        C  0.48246634  0.02277900  0.16957105     0.04000
C329        C  0.47361618  0.04926943  0.15064220    -0.12000
C330        C  0.49691768  0.08860984  0.15841494     0.18900
C331        C  0.52888620  0.10132592  0.18693514    -0.09000
C332        C  0.53752481  0.07479044  0.20644633    -0.02000
H333        H  0.44905586  0.03925454  0.12864557     0.05400
C334        C  0.48982742  0.11622597  0.13263255     0.20900
H335        H  0.56274661  0.08503229  0.22715776     0.10600
C336        C  0.46734659  0.12979182  0.15354152    -0.15400
C337        C  0.46340644  0.15862551  0.13109202     0.03600
C338        C  0.48168710  0.17373919  0.08675876    -0.10700
C339        C  0.50304847  0.15906119  0.06547134    -0.00700
C340        C  0.50712164  0.13058514  0.08784812    -0.05900
H341        H  0.45415998  0.11905782  0.18820226     0.06600
H342        H  0.51799013  0.17102369  0.03193191     0.10000
Br343      Br  0.56261439  0.15487981  0.19780826    -0.05600
Br344      Br  0.44881938  0.96943624  0.15691404    -0.02500
Br345      Br  0.43643825  0.17913467  0.16459221     0.00300
Br346      Br  0.53861727  0.11385283  0.05724012    -0.04000
C347        C  0.48472927  0.41310032  0.33327890    -0.11400
C348        C  0.45056627  0.39587558  0.36129576     0.04000
C349        C  0.44397236  0.36804566  0.39578301    -0.12000
C350        C  0.47107722  0.35722246  0.40344061     0.18900
C351        C  0.50590461  0.37575364  0.37728442    -0.09000
C352        C  0.51250874  0.40345163  0.34262227    -0.02000
H353        H  0.41745478  0.35452086  0.41638814     0.05400
C354        C  0.46285914  0.32628211  0.43822732     0.20900
H355        H  0.53878342  0.41627311  0.32156033     0.10600
C356        C  0.45501924  0.29038862  0.42177198    -0.15400
C357        C  0.45539552  0.26328808  0.45237927     0.03600
C358        C  0.46344614  0.27186377  0.50049397    -0.10700
C359        C  0.46763152  0.30636600  0.51761504    -0.00700
C360        C  0.46723665  0.33344614  0.48695550    -0.05900
H361        H  0.45130571  0.28454133  0.38432234     0.06600
H362        H  0.47422147  0.31357592  0.55436432     0.10000
Br363      Br  0.54510866  0.36370226  0.38738770    -0.05600
Br364      Br  0.41222866  0.40980862  0.35507895    -0.02500
Br365      Br  0.45047041  0.21792060  0.42478756     0.00300
Br366      Br  0.47689361  0.38143819  0.51223332    -0.04000
C367        C  0.12293244  0.17835398  0.46903151    -0.11400
C368        C  0.10415052  0.19852766  0.45704171     0.04000
C369        C  0.12438181  0.23886651  0.45542727    -0.12000
C370        C  0.16326379  0.25977178  0.46525671     0.18900
C371        C  0.18218418  0.24006694  0.97726367    -0.09000
C372        C  0.16229009  0.19988925  0.97874450    -0.02000
H373        H  0.10973921  0.25401719  0.44636936     0.05400
C374        C  0.18405365  0.30232374  0.46411817     0.20900
H375        H  0.17727794  0.18539818  0.98917177     0.10600
C376        C  0.18543593  0.32223170  0.50533263    -0.15400
C377        C  0.20796593  0.36238561  0.50647525     0.03600
C378        C  0.22979018  0.38305698  0.46615914    -0.10700
C379        C  0.22683743  0.36351503  0.92489486    -0.00700
C380        C  0.20454783  0.32323384  0.42321601    -0.05900
H381        H  0.16936258  0.30644396  0.53682004     0.06600
H382        H  0.24306494  0.37947909  0.89358946     0.10000
Br383      Br  0.23504268  0.26701708  0.99270898    -0.05600
Br384      Br  0.05154163  0.17302078  0.44044377    -0.02500
Br385      Br  0.20699725  0.38799336  0.56284301     0.00300
Br386      Br  0.20365979  0.29859715  0.86559086    -0.04000
C387        C  0.30517203  0.42970858  0.02024660    -0.11400
C388        C  0.32727136  0.41400384  0.00431290     0.04000
C389        C  0.35174821  0.41071834  0.03537446    -0.12000
C390        C  0.35448619  0.42316708  0.08212026     0.18900
C391        C  0.33128197  0.43754770  0.09837719    -0.09000
C392        C  0.30680848  0.44057249  0.06746738    -0.02000
H393        H  0.37004048  0.40027106  0.02246880     0.05400
C394        C  0.38487736  0.42589908  0.11187468     0.20900
H395        H  0.29095803  0.45403262  0.07943694     0.10600
C396        C  0.42214545  0.45583288  0.10298207    -0.15400
C397        C  0.45090209  0.46368683  0.13463633     0.03600
C398        C  0.44260163  0.44135184  0.17696392    -0.10700
C399        C  0.40501455  0.40997930  0.18398299    -0.00700
C400        C  0.37661781  0.40212152  0.15177427    -0.05900
H401        H  0.42859688  0.47416207  0.07197480     0.06600
H402        H  0.39624360  0.39164446  0.21481563     0.10000
Br403      Br  0.33537359  0.45783149  0.16066692    -0.05600
Br404      Br  0.32688392  0.39829087  0.44054291    -0.02500
Br405      Br  0.50032899  0.50624267  0.11718682     0.00300
Br406      Br  0.32640601  0.35916545  0.16432950    -0.04000
C407        C  0.07881558  0.47247187  0.30690213    -0.11400
C408        C  0.06595155  0.43691197  0.33112999     0.04000
C409        C  0.09207691  0.42940128  0.35263587    -0.12000
C410        C  0.13059580  0.45765055  0.35410283     0.18900
C411        C  0.14276608  0.49439249  0.33509277    -0.09000
C412        C  0.11718212  0.50144751  0.31165412    -0.02000
H413        H  0.08220105  0.40144735  0.36877090     0.05400
C414        C  0.15800326  0.44874029  0.37535221     0.20900
H415        H  0.12769836  0.53034595  0.29886189     0.10600
C416        C  0.18872265  0.45287220  0.34712421    -0.15400
C417        C  0.21853262  0.45078548  0.36721989     0.03600
C418        C  0.21711226  0.44307158  0.41589116    -0.10700
C419        C  0.18501519  0.43573464  0.44347440    -0.00700
C420        C  0.15561285  0.43890405  0.42369130    -0.05900
H421        H  0.19047099  0.45981317  0.30977408     0.06600
H422        H  0.18418607  0.43044075  0.48117872     0.10000
Br423      Br  0.19366287  0.53669766  0.34234994    -0.05600
Br424      Br  0.01315802  0.39771677  0.33866031    -0.02500
Br425      Br  0.26158306  0.46071953  0.32755532     0.00300
Br426      Br  0.11533811  0.43390337  0.46527329    -0.04000
C427        C  0.81650149  0.17678490  0.02088440    -0.11400
C428        C  0.81688151  0.15812581  0.06287440     0.04000
C429        C  0.83847153  0.13992816  0.06473443    -0.12000
C430        C  0.85970161  0.13974978  0.02493580     0.18900
C431        C  0.85810939  0.15749833  0.48319212    -0.09000
C432        C  0.83666103  0.17572281  0.48153055    -0.02000
H433        H  0.83808086  0.12520139  0.09698885     0.05400
C434        C  0.88045058  0.11826353  0.02657328     0.20900
H435        H  0.83672447  0.19002782  0.44919853     0.10600
C436        C  0.86524375  0.08310178  0.50317563    -0.15400
C437        C  0.88513596  0.06323948  0.50057514     0.03600
C438        C  0.92080318  0.07778039  0.02284373    -0.10700
C439        C  0.93497551  0.11237612  0.04768693    -0.00700
C440        C  0.91525933  0.13257059  0.04949189    -0.05900
H441        H  0.83865393  0.07197936  0.48501700     0.06600
H442        H  0.96193749  0.12426891  0.06509663     0.10000
Br443      Br  0.88627954  0.15875993  0.42720406    -0.05600
Br444      Br  0.78647335  0.15481640  0.11737785    -0.02500
Br445      Br  0.86367435  0.01907854  0.46085679     0.00300
Br446      Br  0.93792589  0.18070505  0.08127261    -0.04000
C447        C  0.96820408  0.41719100  0.19720448    -0.11400
C448        C  0.94733590  0.41974777  0.15914718     0.04900
C449        C  0.92127826  0.38643958  0.13550403    -0.12000
C450        C  0.91525618  0.35021488  0.14829917     0.18900
C451        C  0.93524196  0.34722152  0.18602092    -0.09000
C452        C  0.96013714  0.37991982  0.21075379    -0.02000
H453        H  0.90565303  0.38881613  0.10650716     0.05400
C454        C  0.88771962  0.31585122  0.12221203     0.20900
H455        H  0.97329531  0.37553786  0.24094021     0.10600
C456        C  0.89609667  0.31139422  0.07502974    -0.15400
C457        C  0.86939013  0.28077373  0.04834202     0.03600
C458        C  0.83384421  0.25375127  0.06903750    -0.10700
C459        C  0.82593836  0.25773750  0.11655262    -0.00700
C460        C  0.85241311  0.28841485  0.14312573    -0.05900
H461        H  0.92296669  0.33258107  0.05844149     0.06600
H462        H  0.79805557  0.23818055  0.13220872     0.10000
Br463      Br  0.93099268  0.29923812  0.20364738    -0.05600
Br464      Br  0.95218977  0.46632248  0.13498406    -0.02500
Br465      Br  0.88089229  0.27961646  0.98244309     0.00300
Br466      Br  0.83750685  0.29362093  0.20630657    -0.04000
C467        C  0.74179820  0.14977127  0.46303639    -0.11400
C468        C  0.74639939  0.15368595  0.41344299     0.04000
C469        C  0.71826835  0.12645830  0.38469047    -0.12000
C470        C  0.68453875  0.09576168  0.40450955     0.18900
C471        C  0.68094973  0.09047078  0.45411318    -0.09000
C472        C  0.70959433  0.11731784  0.48286470    -0.02000
H473        H  0.72161012  0.13061708  0.34663677     0.05400
C474        C  0.65276811  0.07135862  0.37292247     0.20900
H475        H  0.70601833  0.11558257  0.02076442     0.10600
C476        C  0.64021298  0.03214290  0.36944145    -0.15400
C477        C  0.61137314  0.00885319  0.33858951     0.03600
C478        C  0.59522853  0.02497322  0.30931696    -0.10700
C479        C  0.60670960  0.06382266  0.31416672    -0.00700
C480        C  0.63510847  0.08697268  0.34562634    -0.05900
H481        H  0.65293621  0.01957679  0.39083948     0.06600
H482        H  0.59414017  0.07646359  0.29271369     0.10000
Br483      Br  0.63558883  0.04991312  0.48456026    -0.05600
Br484      Br  0.78811122  0.19833609  0.38335809    -0.02500
Br485      Br  0.59362411  0.95483355  0.34020683     0.00300
Br486      Br  0.64809461  0.13956003  0.35073735    -0.04000
N487        N  0.79456556  0.19568444  0.01787545    -0.02900
C488        C  0.76296397  0.18474397  0.99223106    -0.00400
C489        C  0.74989443  0.21003941  0.99808495    -0.23200
C490        C  0.77316814  0.23691843  0.52865009    -0.23400
C491        C  0.80046016  0.22780101  0.53991220    -0.00500
H492        H  0.72525788  0.20842847  0.98213437     0.13300
H493        H  0.77160768  0.26156505  0.54033189     0.13400
N494        N  0.25470971  0.42407102  0.46648429    -0.02900
C495        C  0.28904871  0.44402499  0.48669933    -0.00400
C496        C  0.30690158  0.48240934  0.47386082    -0.23200
C497        C  0.28166596  0.48636212  0.94452217    -0.23400
C498        C  0.25020907  0.45007987  0.94072392    -0.00500
H499        H  0.33412654  0.50516279  0.48555832     0.13300
H500        H  0.28590448  0.51271937  0.92873246     0.13400
N501        N  0.45952007  0.21504302  0.54557084    -0.02900
C502        C  0.48608785  0.20980659  0.56724800    -0.00400
C503        C  0.52135781  0.24295302  0.56382304    -0.23200
C504        C  0.51687042  0.26953358  0.03879090    -0.23400
C505        C  0.47878421  0.25198803  0.02842893    -0.00500
H506        H  0.54791666  0.24701690  0.57676076     0.13300
H507        H  0.53890183  0.29851288  0.02920121     0.13400
N508        N  0.24335783  0.75968173  0.48891531    -0.02900
C509        C  0.23089320  0.72530261  0.51160381    -0.00400
C510        C  0.26115801  0.71937649  0.51776403    -0.23200
C511        C  0.29367967  0.75112551  0.99967685    -0.23400
C512        C  0.28219446  0.77530803  0.98189641    -0.00500
H513        H  0.26033749  0.69522569  0.53557712     0.13300
H514        H  0.32219070  0.75550716  0.99813258     0.13400
N515        N  0.79516035  0.53128905  0.01626560    -0.02900
C516        C  0.80378507  0.50849177  0.98994717    -0.00400
C517        C  0.77651076  0.47032053  0.99728920    -0.23200
C518        C  0.75042766  0.46958445  0.52621048    -0.23400
C519        C  0.76241082  0.50703351  0.53815967    -0.00500
H520        H  0.77602197  0.44581212  0.98125124     0.13300
H521        H  0.72463885  0.44409109  0.53863902     0.13400
N522        N  0.58231582  0.77239492  0.94807427    -0.02900
C523        C  0.55598829  0.74026573  0.92617603    -0.00400
C524        C  0.52193269  0.73993126  0.92406851    -0.23200
C525        C  0.52677962  0.77231125  0.44745394    -0.23400
C526        C  0.56382323  0.79140513  0.46252557    -0.00500
H527        H  0.49583358  0.71806827  0.90877555     0.13300
H528        H  0.50526065  0.78002281  0.45419387     0.13400
O529        O  0.97274922  0.91140102  0.96687313    -0.87800
C530        C  0.95869247  0.97452465  0.57133190     0.88200
Mg531      Mg  0.01525203  0.89496024  0.96990868     1.58100
O532        O  0.00432917  0.02709689  0.96552773    -0.87500
O533        O  0.95629715  0.94392159  0.92090679    -0.74900
C534        C  0.17467569  0.05348556  0.52698421     0.93300
O535        O  0.98526044  0.90947485  0.57922084    -0.74700
O536        O  0.15780101  0.01717738  0.53161822    -0.82200
Mg537      Mg  0.93680885  0.89926872  0.53056540     1.58000
C538        C  0.10294071  0.13590012  0.97557762     0.93200
O539        O  0.88246583  0.88337858  0.98939833    -0.80500
H540        H  0.00484807  0.03501620  0.89564918    -0.05800
C541        C  0.07396947  0.03610375  0.57253119     0.88100
O542        O  0.05668605  0.94616417  0.92203691    -0.75000
O543        O  0.95394562  0.95953284  0.53219484    -0.87700
O544        O  0.06783301  0.11786541  0.98872317    -0.80500
C545        C  0.94396861  0.05879246  0.51909028     0.93300
C546        C  0.86493363  0.90074976  0.97801006     0.93200
Mg547      Mg  0.10371158  0.05541820  0.97000347     1.58000
O548        O  0.15726451  0.07018888  0.51222595    -0.80500
O549        O  0.05546900  0.04550392  0.92069561    -0.74700
O550        O  0.92806519  0.02351060  0.50798610    -0.80500
O551        O  0.91919406  0.83579542  0.52984807    -0.82300
O552        O  0.11269355  0.93143395  0.99208849    -0.80600
C553        C  0.02073475  0.03611639  0.92624921     0.87600
O554        O  0.08682452  0.99554494  0.96794210    -0.87700
O555        O  0.06715798  0.04368275  0.53286660    -0.87800
O556        O  0.08291535  0.01054558  0.57892536    -0.74900
Mg557      Mg  0.94479010  0.98329116  0.96845437     1.58000
O558        O  0.97978970  0.07867254  0.52499884    -0.82300
H559        H  0.96745086  0.90318492  0.89717936    -0.06000
O560        O  0.03595683  0.92819955  0.53356983    -0.87500
H561        H  0.03614285  0.92001134  0.60325950    -0.05800
H562        H  0.09853151  0.99865161  0.89847736    -0.06000
C563        C  0.01992196  0.91892241  0.57302264     0.87600
C564        C  0.96528493  0.91842304  0.92731573     0.88200
C565        C  0.08180950  0.98099834  0.92848881     0.88200
H566        H  0.07131493  0.05095251  0.60277997    -0.06000
O567        O  0.98323828  0.00968100  0.57713915    -0.75000
Mg568      Mg  0.09528222  0.97139533  0.53188278     1.58000
H569        H  0.94207544  0.95711991  0.60155106    -0.06000
C570        C  0.93877443  0.81950019  0.52432800     0.93200
O571        O  0.05980968  0.87745495  0.97360047    -0.82200
C572        C  0.09547760  0.89627589  0.98005215     0.93200
O573        O  0.88209615  0.93704701  0.97212151    -0.82200
Mg574      Mg  0.02491956  0.06086088  0.52901249     1.58200
O575        O  0.97358544  0.83836457  0.51023606    -0.80500
O576        O  0.12178320  0.11873937  0.97098439    -0.82200
C577        C  0.05061929  0.48018079  0.77896795     0.87000
C578        C  0.02311146  0.48554184  0.81142167    -0.53200
C579        C  0.99740392  0.49103075  0.78818330     0.09900
C580        C  0.00091227  0.49029276  0.73387390     0.20900
C581        C  0.02578156  0.44762824  0.74582135    -0.53900
C582        C  0.99804926  0.45099196  0.72339823     0.10000
C583        C  0.06858295  0.51530313  0.74544636    -0.53500
C584        C  0.04308212  0.52137033  0.72230917     0.10600
H585        H  0.02433049  0.48569193  0.84975593     0.15100
H586        H  0.97998829  0.49572441  0.71692692     0.00900
H587        H  0.03038126  0.42368522  0.74081130     0.15400
H588        H  0.09887291  0.53342813  0.73813095     0.15200
C589        C  0.54324091  0.95847383  0.70688659     0.87000
C590        C  0.53490832  0.98765920  0.68369920    -0.53200
C591        C  0.52728217  0.00884951  0.71470199     0.09900
C592        C  0.52917498  0.99934849  0.76718625     0.20900
C593        C  0.57555417  0.98168226  0.74080404    -0.53900
C594        C  0.56843731  0.00280130  0.77253707     0.10000
C595        C  0.50814853  0.93468454  0.74058141    -0.53500
C596        C  0.50071825  0.95590271  0.77213793     0.10600
H597        H  0.53418781  0.99067448  0.64561303     0.15100
H598        H  0.52374731  0.01690943  0.79276204     0.00900
H599        H  0.60195383  0.98115846  0.73998949     0.15400
H600        H  0.49040790  0.90375868  0.74115612     0.15200
C601        C  0.47335534  0.45231946  0.71453755     0.87000
C602        C  0.50971313  0.45442699  0.69472295    -0.53200
C603        C  0.53835071  0.46686963  0.72601383     0.09900
C604        C  0.52776758  0.47489456  0.77554783     0.20900
C605        C  0.46283133  0.42567866  0.75826059    -0.53900
C606        C  0.49066924  0.43758023  0.79064715     0.10000
C607        C  0.48638843  0.49217254  0.73534187    -0.53500
C608        C  0.51537385  0.50454398  0.76651119     0.10600
H609        H  0.51320119  0.44816620  0.65824816     0.15100
H610        H  0.55110804  0.48432640  0.80093282     0.00900
H611        H  0.43694642  0.39836607  0.76319356     0.15400
H612        H  0.47315067  0.50879435  0.72650670     0.15200
C613        C  0.62257094  0.78641470  0.95012781    -0.11400
C614        C  0.64913882  0.82088381  0.92669555     0.04000
C615        C  0.68812977  0.83524731  0.93094991    -0.12000
C616        C  0.70149657  0.81575252  0.95823679     0.18900
C617        C  0.67465026  0.78058323  0.48118170    -0.09000
C618        C  0.63549507  0.76578903  0.47593036    -0.02000
H619        H  0.70823967  0.86214481  0.91336250     0.05400
C620        C  0.74302441  0.83481531  0.96568613     0.20900
H621        H  0.61518215  0.73891152  0.49332705     0.10600
C622        C  0.75974290  0.86841952  0.49288962    -0.15400
C623        C  0.79920432  0.88980577  0.49750820     0.03600
C624        C  0.82302886  0.87816680  0.97383021    -0.10700
C625        C  0.80593666  0.84365151  0.94882717    -0.00700
C626        C  0.76622763  0.82210936  0.94434946    -0.05900
H627        H  0.74210938  0.87813303  0.50999318     0.06600
H628        H  0.82355805  0.83386517  0.93190192     0.10000
Br629      Br  0.69026822  0.75332293  0.52176644    -0.05600
Br630      Br  0.63357895  0.84852280  0.88671207    -0.02500
Br631      Br  0.81895867  0.93310402  0.53849762     0.00300
Br632      Br  0.74516414  0.77667982  0.90708204    -0.04000
C633        C  0.57784873  0.82456768  0.49469767    -0.11400
C634        C  0.58694208  0.82203361  0.54193554     0.04000
C635        C  0.58870464  0.84851942  0.57510267    -0.12000
C636        C  0.57985780  0.87668662  0.56271304     0.18900
C637        C  0.57322925  0.88083564  0.51502355    -0.09000
C638        C  0.57257533  0.85509298  0.48153343    -0.02000
H639        H  0.59358142  0.84495491  0.61176949     0.05400
C640        C  0.57178907  0.89710191  0.60069688     0.20900
H641        H  0.56447983  0.85652867  0.94541272     0.10600
C642        C  0.59481826  0.93687349  0.60508104    -0.15400
C643        C  0.58614025  0.95682688  0.63894613     0.03600
C644        C  0.55367939  0.93687373  0.67013784    -0.10700
C645        C  0.53116993  0.89669309  0.66541540    -0.00700
C646        C  0.53983340  0.87705226  0.63144171    -0.05900
H647        H  0.61944721  0.95260567  0.58146316     0.06600
H648        H  0.50591162  0.87950095  0.68706692     0.10000
Br649      Br  0.55992999  0.91784755  0.49498336    -0.05600
Br650      Br  0.58999341  0.77932591  0.56588956    -0.02500
Br651      Br  0.61990060  0.01154788  0.63941979     0.00300
Br652      Br  0.50555092  0.82269784  0.62690728    -0.04000
C653        C  0.53220541  0.54231941  0.79062494    -0.11400
C654        C  0.54022557  0.57656084  0.76676166     0.04000
C655        C  0.55140520  0.61010112  0.79208102    -0.12000
C656        C  0.55685916  0.61126680  0.84089432     0.18900
C657        C  0.55230599  0.57814179  0.86406779    -0.09000
C658        C  0.53969163  0.54404659  0.83908628    -0.02000
H659        H  0.55497533  0.63527003  0.77356613     0.05400
C660        C  0.56172869  0.64515598  0.86744677     0.20900
H661        H  0.53472008  0.51852491  0.85805992     0.10600
C662        C  0.53412212  0.63916222  0.90230654    -0.15400
C663        C  0.53365369  0.66990827  0.92382670     0.03600
C664        C  0.56058941  0.70797345  0.90972613    -0.10700
C665        C  0.58933264  0.71428946  0.87630257    -0.00700
C666        C  0.59020179  0.68325858  0.85532079    -0.05900
H667        H  0.51187760  0.61022533  0.91186117     0.06600
H668        H  0.61029143  0.74330367  0.86517096     0.10000
Br669      Br  0.56314147  0.57808620  0.92971682    -0.05600
Br670      Br  0.53897397  0.58082356  0.69948148    -0.02500
Br671      Br  0.49489181  0.65814756  0.47349103     0.00300
Br672      Br  0.63067603  0.69444726  0.81032910    -0.04000
C673        C  0.81748908  0.57271089  0.51903293    -0.11400
C674        C  0.82177138  0.59660090  0.98085380     0.04000
C675        C  0.84359924  0.63650485  0.98508364    -0.12000
C676        C  0.86124262  0.65327231  0.52764647     0.18900
C677        C  0.85753746  0.62901505  0.56581758    -0.09000
C678        C  0.83556905  0.58905476  0.56137389    -0.02000
H679        H  0.84654638  0.65472970  0.95518159     0.05400
C680        C  0.88333896  0.69571818  0.53099627     0.20900
H681        H  0.83298801  0.57055712  0.59074183     0.10600
C682        C  0.86923211  0.71453077  0.05839204    -0.15400
C683        C  0.88743574  0.75475102  0.05835622     0.03600
C684        C  0.92042269  0.77702600  0.53056385    -0.10700
C685        C  0.93576752  0.75795592  0.50475602    -0.00700
C686        C  0.91750127  0.71785584  0.50459876    -0.05900
H687        H  0.84330820  0.69780360  0.07957182     0.06600
H688        H  0.96150069  0.77421472  0.48310440     0.10000
Br689      Br  0.88313187  0.64919627  0.62381247    -0.05600
Br690      Br  0.79734099  0.57672458  0.92223667    -0.02500
Br691      Br  0.86575375  0.77709614  0.09900275     0.00300
Br692      Br  0.94006399  0.69450527  0.46734336    -0.04000
C693        C  0.73930484  0.51704587  0.56931698    -0.11400
C694        C  0.70789101  0.51799820  0.55124854     0.04000
C695        C  0.67911291  0.51509223  0.58204782    -0.12000
C696        C  0.68093298  0.51077040  0.63093290     0.18900
C697        C  0.71330569  0.51200190  0.64928332    -0.09000
C698        C  0.74228020  0.51518149  0.61845729    -0.02000
H699        H  0.65413602  0.51387574  0.56762607     0.05400
C700        C  0.64670150  0.49996882  0.66108500     0.20900
H701        H  0.76580329  0.51340758  0.63267027     0.10600
C702        C  0.61921527  0.46092592  0.66682484    -0.15400
C703        C  0.58457484  0.44942894  0.69085327     0.03600
C704        C  0.57718912  0.47720218  0.70989125    -0.10700
C705        C  0.60539026  0.51617199  0.70612059    -0.00700
C706        C  0.63991098  0.52769804  0.68152606    -0.05900
H707        H  0.62428951  0.43940029  0.65126912     0.06600
H708        H  0.59966868  0.53778035  0.71993847     0.10000
Br709      Br  0.71732511  0.50614819  0.71580307    -0.05600
Br710      Br  0.70097266  0.51877639  0.48454038    -0.02500
Br711      Br  0.54768323  0.39561796  0.69588211     0.00300
Br712      Br  0.67609496  0.58146336  0.67427183    -0.04000
C713        C  0.83765262  0.52054583  0.95862395    -0.11400
C714        C  0.87265007  0.52840565  0.97699727     0.04000
C715        C  0.90070764  0.52867356  0.94695142    -0.12000
C716        C  0.89440776  0.52133402  0.89848539     0.18900
C717        C  0.86035329  0.51594923  0.87977820    -0.09000
C718        C  0.83216561  0.51499465  0.90989001    -0.02000
H719        H  0.92661699  0.53249565  0.96188402     0.05400
C720        C  0.92116315  0.51466905  0.86915924     0.20900
H721        H  0.80502762  0.50797394  0.89549502     0.10600
C722        C  0.90852061  0.47763773  0.85201398    -0.15400
C723        C  0.93274073  0.46969508  0.82472550     0.03600
C724        C  0.97028598  0.49905757  0.81401769    -0.10700
C725        C  0.98316550  0.53600535  0.83141120    -0.00700
C726        C  0.95895855  0.54396697  0.85889920    -0.05900
H727        H  0.87974465  0.45467745  0.86042068     0.06600
H728        H  0.01226272  0.55861934  0.82392095     0.10000
Br729      Br  0.85047044  0.50829995  0.81353907    -0.05600
Br730      Br  0.88063251  0.53088253  0.54453820    -0.02500
Br731      Br  0.91395558  0.41803200  0.80466846     0.00300
Br732      Br  0.97849622  0.59521361  0.88103518    -0.04000
C733        C  0.11710565  0.87595459  0.97617247    -0.11400
C734        C  0.10445011  0.84111299  0.50222463     0.04000
C735        C  0.12598262  0.82301613  0.49985480    -0.12000
C736        C  0.16037148  0.83903658  0.97216314     0.18900
C737        C  0.17220699  0.87309235  0.94570509    -0.09000
C738        C  0.15086461  0.89155290  0.94835230    -0.02000
H739        H  0.11670728  0.79692429  0.52040443     0.05400
C740        C  0.18349190  0.82014333  0.97385264     0.20900
H741        H  0.16047068  0.91795432  0.92837246     0.10600
C742        C  0.17007207  0.78426270  0.95286652    -0.15400
C743        C  0.18977360  0.76430894  0.95711108     0.03600
C744        C  0.22344504  0.78018389  0.98304230    -0.10700
C745        C  0.23635966  0.81563227  0.50326137    -0.00700
C746        C  0.21668073  0.83552526  0.49956637    -0.05900
H747        H  0.14402542  0.77165011  0.93332800     0.06600
H748        H  0.26193889  0.82775630  0.52365566     0.10000
Br749      Br  0.21682913  0.89484515  0.90492109    -0.05600
Br750      Br  0.06010868  0.81866435  0.54372108    -0.02500
Br751      Br  0.17016260  0.71632378  0.92554362     0.00300
Br752      Br  0.23571923  0.88290673  0.53256390    -0.04000
C753        C  0.19184089  0.69774371  0.53089938    -0.11400
C754        C  0.17600549  0.65792692  0.52430367     0.04000
C755        C  0.14483159  0.63145127  0.55230616    -0.12000
C756        C  0.12709291  0.64343539  0.58564636     0.18900
C757        C  0.14035497  0.68320978  0.58856889    -0.09000
C758        C  0.17280836  0.70996898  0.56190515    -0.02000
H759        H  0.13545138  0.60126250  0.54923906     0.05400
C760        C  0.09890656  0.61449560  0.62073397     0.20900
H761        H  0.18412132  0.74032969  0.56716116     0.10600
C762        C  0.10595195  0.62092317  0.66919023    -0.15400
C763        C  0.08495464  0.59200361  0.70313744     0.03600
C764        C  0.05718620  0.55486447  0.68903587    -0.10700
C765        C  0.04870828  0.54885837  0.64101083    -0.00700
C766        C  0.06858840  0.57837220  0.60709248    -0.05900
H767        H  0.12922565  0.64807434  0.68074255     0.06600
H768        H  0.02836706  0.52050796  0.62926008     0.10000
Br769      Br  0.11538275  0.70251127  0.62859848    -0.05600
Br770      Br  0.19589473  0.63780966  0.47746269    -0.02500
Br771      Br  0.09664673  0.60441206  0.76840744     0.00300
Br772      Br  0.05350442  0.56742026  0.54260589    -0.04000
C773        C  0.46976495  0.93714678  0.80945078    -0.11400
C774        C  0.44239688  0.94821903  0.81869548     0.04000
C775        C  0.41137256  0.92623100  0.85005259    -0.12000
C776        C  0.40725642  0.89355808  0.87318086     0.18900
C777        C  0.43534575  0.88349890  0.86567717    -0.09000
C778        C  0.46613103  0.90518309  0.83428088    -0.02000
H779        H  0.38984104  0.93412969  0.85558785     0.05400
C780        C  0.37226623  0.86840905  0.90210970     0.20900
H781        H  0.48703082  0.89646742  0.82847706     0.10600
C782        C  0.33946598  0.84119551  0.87929423    -0.15400
C783        C  0.30807146  0.81241354  0.90520025     0.03600
C784        C  0.30891199  0.81088597  0.95490191    -0.10700
C785        C  0.34090039  0.83956561  0.97780925    -0.00700
C786        C  0.37237986  0.86821672  0.95186469    -0.05900
H787        H  0.33924951  0.84087320  0.84100358     0.06600
H788        H  0.34132043  0.83790504  0.51459794     0.10000
Br789      Br  0.43186223  0.83912945  0.89567314    -0.05600
Br790      Br  0.44367104  0.99103624  0.78764901    -0.02500
Br791      Br  0.26723330  0.77289854  0.87066725     0.00300
Br792      Br  0.41598031  0.90491012  0.98546369    -0.04000
C793        C  0.21622089  0.07716698  0.53607838    -0.11400
C794        C  0.23635277  0.06324597  0.56181375     0.04000
C795        C  0.27598798  0.08593444  0.56547376    -0.12000
C796        C  0.29636503  0.12256837  0.54433537     0.18900
C797        C  0.27675076  0.13686267  0.01888022    -0.09000
C798        C  0.23721388  0.11440993  0.01520937    -0.02000
H799        H  0.29107971  0.07492691  0.58501334     0.05400
C800        C  0.33840455  0.14519214  0.54766790     0.20900
H801        H  0.22286423  0.12570117  0.99467185     0.10600
C802        C  0.36087058  0.13250896  0.02426800    -0.15400
C803        C  0.40076636  0.15427980  0.02423534     0.03600
C804        C  0.41873298  0.19001670  0.54726592    -0.10700
C805        C  0.39628126  0.20212329  0.57144875    -0.00700
C806        C  0.35653661  0.17965120  0.57281929    -0.05900
H807        H  0.34709825  0.10570968  0.00545310     0.06600
H808        H  0.40996075  0.22904045  0.58998917     0.10000
Br809      Br  0.30259195  0.18560720  0.98605602    -0.05600
Br810      Br  0.21213540  0.01420862  0.59400197    -0.02500
Br811      Br  0.42851927  0.13452066  0.99094541     0.00300
Br812      Br  0.32826721  0.19631807  0.61108250    -0.04000
C813        C  0.51512743  0.03580101  0.69810073    -0.11400
C814        C  0.48258264  0.02302649  0.67037785     0.04000
C815        C  0.47367721  0.04948924  0.65148900    -0.12000
C816        C  0.49688123  0.08882338  0.65938134     0.18900
C817        C  0.52878675  0.10155145  0.68802222    -0.09000
C818        C  0.53750203  0.07504514  0.70745541    -0.02000
H819        H  0.44914645  0.03945903  0.62943609     0.05400
C820        C  0.48976038  0.11642591  0.63360155     0.20900
H821        H  0.56269070  0.08530661  0.72823557     0.10600
C822        C  0.46697303  0.12970096  0.65433495    -0.15400
C823        C  0.46294338  0.15848262  0.63188456     0.03600
C824        C  0.48143691  0.17383154  0.58771265    -0.10700
C825        C  0.50309165  0.15942284  0.56657927    -0.00700
C826        C  0.50726784  0.13101379  0.58896810    -0.05900
H827        H  0.45360329  0.11877915  0.68887032     0.06600
H828        H  0.51819071  0.17156033  0.53316975     0.10000
Br829      Br  0.56231234  0.15509047  0.69920807    -0.05600
Br830      Br  0.44899918  0.96968360  0.65765542    -0.02500
Br831      Br  0.43551251  0.17857910  0.66518109     0.00300
Br832      Br  0.53917187  0.11467986  0.55858940    -0.04000
C833        C  0.48550022  0.41352144  0.83325054    -0.11400
C834        C  0.45141002  0.39657903  0.86140565     0.04000
C835        C  0.44464187  0.36867328  0.89585486    -0.12000
C836        C  0.47152452  0.35753503  0.90337426     0.18900
C837        C  0.50633238  0.37585302  0.87716601    -0.09000
C838        C  0.51309234  0.40359658  0.84249946    -0.02000
H839        H  0.41815683  0.35532736  0.91652373     0.05400
C840        C  0.46309447  0.32647321  0.93804900     0.20900
H841        H  0.53930951  0.41620800  0.82133806     0.10600
C842        C  0.45505854  0.29055632  0.92145099    -0.15400
C843        C  0.45539496  0.26335727  0.95190618     0.03600
C844        C  0.46361176  0.27186920  0.99999572    -0.10700
C845        C  0.46791965  0.30637138  0.01729336    -0.00700
C846        C  0.46755098  0.33354588  0.98678755    -0.05900
H847        H  0.45126073  0.28477576  0.88399357     0.06600
H848        H  0.47461371  0.31351354  0.05403561     0.10000
Br849      Br  0.54528360  0.36342471  0.88719195    -0.05600
Br850      Br  0.41338657  0.41096783  0.85538543    -0.02500
Br851      Br  0.45020851  0.21794198  0.92412474     0.00300
Br852      Br  0.47738243  0.38153756  0.01225958    -0.04000
C853        C  0.12328714  0.17844692  0.96869257    -0.11400
C854        C  0.10468827  0.19850285  0.95540621     0.04000
C855        C  0.12479101  0.23884264  0.95393985    -0.12000
C856        C  0.16336583  0.25985175  0.96527656     0.18900
C857        C  0.18223558  0.23988392  0.47593552    -0.09000
C858        C  0.16221396  0.19971076  0.47761759    -0.02000
H859        H  0.11028750  0.25390949  0.94385533     0.05400
C860        C  0.18400391  0.30240289  0.96430832     0.20900
H861        H  0.17737320  0.18516897  0.48704725     0.10600
C862        C  0.18517169  0.32216029  0.00558319    -0.15400
C863        C  0.20745351  0.36232973  0.00685236     0.03600
C864        C  0.22925541  0.38317277  0.96661184    -0.10700
C865        C  0.22707227  0.36326350  0.42446303    -0.00700
C866        C  0.20453962  0.32347055  0.92351073    -0.05900
H867        H  0.16909623  0.30624602  0.03700631     0.06600
H868        H  0.24327230  0.37910145  0.39307850     0.10000
Br869      Br  0.23548651  0.26668610  0.48942381    -0.05600
Br870      Br  0.05255870  0.17276368  0.93679364    -0.02500
Br871      Br  0.20622120  0.38771312  0.06330369     0.00300
Br872      Br  0.20325661  0.29815249  0.36531725    -0.04000
C873        C  0.30540468  0.42921116  0.52053012    -0.11400
C874        C  0.32677682  0.41257762  0.50506282     0.04000
C875        C  0.35116223  0.40926477  0.53624055    -0.12000
C876        C  0.35447181  0.42255109  0.58262235     0.18900
C877        C  0.33183397  0.43766814  0.59852677    -0.09000
C878        C  0.30748895  0.44077653  0.56749976    -0.02000
H879        H  0.36899985  0.39818869  0.52364503     0.05400
C880        C  0.38497448  0.42546046  0.61222834     0.20900
H881        H  0.29212252  0.45483152  0.57911901     0.10600
C882        C  0.42213893  0.45555911  0.60324194    -0.15400
C883        C  0.45099014  0.46361251  0.63480972     0.03600
C884        C  0.44287091  0.44135879  0.67716429    -0.10700
C885        C  0.40537085  0.40983281  0.68429187    -0.00700
C886        C  0.37688742  0.40177170  0.65214704    -0.05900
H887        H  0.42843044  0.47382596  0.57221216     0.06600
H888        H  0.39673596  0.39148823  0.71507313     0.10000
Br889      Br  0.33658176  0.45877301  0.66042240    -0.05600
Br890      Br  0.32809094  0.40089584  0.93940767    -0.02500
Br891      Br  0.50030429  0.50623997  0.61713482     0.00300
Br892      Br  0.32678715  0.35867471  0.66481428    -0.04000
C893        C  0.07774695  0.47253854  0.80724161    -0.11400
C894        C  0.06470554  0.43711940  0.83190624     0.04000
C895        C  0.09070975  0.42951187  0.85360685    -0.12000
C896        C  0.12934325  0.45750934  0.85466283     0.18900
C897        C  0.14175592  0.49412220  0.83504636    -0.09000
C898        C  0.11626048  0.50128646  0.81155270    -0.02000
H899        H  0.08066090  0.40166536  0.87015453     0.05400
C900        C  0.15662793  0.44848423  0.87610654     0.20900
H901        H  0.12701263  0.53010778  0.79833074     0.10600
C902        C  0.18703513  0.45190870  0.84783258    -0.15400
C903        C  0.21683138  0.44982554  0.86800327     0.03600
C904        C  0.21572175  0.44284379  0.91683427    -0.10700
C905        C  0.18390181  0.43618496  0.94453975    -0.00700
C906        C  0.15450833  0.43933234  0.92464902    -0.05900
H907        H  0.18858655  0.45833329  0.81034612     0.06600
H908        H  0.18331235  0.43145538  0.98235246     0.10000
Br909      Br  0.19292954  0.53613629  0.84144961    -0.05600
Br910      Br  0.01182300  0.39820802  0.83959729    -0.02500
Br911      Br  0.25951331  0.45885600  0.82819894     0.00300
Br912      Br  0.11465052  0.43527385  0.96625682    -0.04000
C913        C  0.81560974  0.17609758  0.52125315    -0.11400
C914        C  0.81625120  0.15768663  0.56333709     0.04000
C915        C  0.83791778  0.13957299  0.56518544    -0.12000
C916        C  0.85893993  0.13919926  0.52527763     0.18900
C917        C  0.85919649  0.15837397  0.98297377    -0.09000
C918        C  0.83780153  0.17665467  0.98129428    -0.02000
H919        H  0.83774889  0.12506093  0.59752738     0.05400
C920        C  0.87982779  0.11785741  0.52697225     0.20900
H921        H  0.83808837  0.19118419  0.94905201     0.10600
C922        C  0.86589735  0.08365774  0.00243467    -0.15400
C923        C  0.88568316  0.06368702  0.99977471     0.03600
C924        C  0.92039241  0.07758744  0.52340443    -0.10700
C925        C  0.93460146  0.11234249  0.54790102    -0.00700
C926        C  0.91478463  0.13243753  0.54961064    -0.05900
H927        H  0.83942066  0.07274195  0.98407170     0.06600
H928        H  0.96166773  0.12443821  0.56509925     0.10000
Br929      Br  0.88774286  0.16000461  0.92718518    -0.05600
Br930      Br  0.78606045  0.15454335  0.61799756    -0.02500
Br931      Br  0.86430680  0.01974877  0.95968959     0.00300
Br932      Br  0.93750807  0.18080798  0.58084990    -0.04000
C933        C  0.96736281  0.41707226  0.69710021    -0.11400
C934        C  0.94642363  0.41951500  0.65903275     0.04900
C935        C  0.92043298  0.38615299  0.63538671    -0.12000
C936        C  0.91456369  0.34997569  0.64813936     0.18900
C937        C  0.93466950  0.34710231  0.68580167    -0.09000
C938        C  0.95945506  0.37983391  0.71057965    -0.02000
H939        H  0.90472774  0.38845096  0.60643187     0.05400
C940        C  0.88696659  0.31550856  0.62219879     0.20900
H941        H  0.97263509  0.37548338  0.74076365     0.10600
C942        C  0.89521687  0.31088049  0.57502208    -0.15400
C943        C  0.86845805  0.28011431  0.54853353     0.03600
C944        C  0.83296310  0.25313138  0.56940053    -0.10700
C945        C  0.82518992  0.25729784  0.61691009    -0.00700
C946        C  0.85173097  0.28808929  0.64329788    -0.05900
H947        H  0.92203509  0.33202712  0.55828710     0.06600
H948        H  0.79735898  0.23777061  0.63271758     0.10000
Br949      Br  0.93070825  0.29922661  0.70330433    -0.05600
Br950      Br  0.95107925  0.46599695  0.63483757    -0.02500
Br951      Br  0.87981922  0.27867447  0.48265123     0.00300
Br952      Br  0.83702248  0.29343852  0.70652478    -0.04000
C953        C  0.74270528  0.15047552  0.96271941    -0.11400
C954        C  0.74726977  0.15425116  0.91311951     0.04000
C955        C  0.71905300  0.12700966  0.88447947    -0.12000
C956        C  0.68533660  0.09640391  0.90444031     0.18900
C957        C  0.68178667  0.09123541  0.95404764    -0.09000
C958        C  0.71048467  0.11812331  0.98269043    -0.02000
H959        H  0.72233269  0.13106909  0.84641105     0.05400
C960        C  0.65352454  0.07195433  0.87298848     0.20900
H961        H  0.70508723  0.11466090  0.52093143     0.10600
C962        C  0.64126007  0.03283105  0.86922976    -0.15400
C963        C  0.61238680  0.00949754  0.83845406     0.03600
C964        C  0.59590055  0.02549963  0.80956389    -0.10700
C965        C  0.60709469  0.06425395  0.81473604    -0.00700
C966        C  0.63554315  0.08743885  0.84611385    -0.05900
H967        H  0.65423359  0.02037563  0.89036068     0.06600
H968        H  0.59426225  0.07679896  0.79360028     0.10000
Br969      Br  0.63641203  0.05077664  0.98458569    -0.05600
Br970      Br  0.78908993  0.19871846  0.88288202    -0.02500
Br971      Br  0.59508509  0.95557107  0.83971268     0.00300
Br972      Br  0.64818684  0.13988938  0.85172472    -0.04000
loop_ 
_geom_bond_atom_site_label_1 
_geom_bond_atom_site_label_2 
_geom_bond_distance 
_geom_bond_site_symmetry_2 
_ccdc_geom_bond_type 
N1            C2   1.361       .  A
N1          C491   1.361       .  A
N1          C913   1.444       .  S
C2            C3   1.380       .  A
C2          C467   1.477       .  S
C3          C490   1.370       .  A
C3            H6   1.082       .  S
C4            C5   1.381       .  A
C4          C489   1.370   1_554  A
C4            H7   1.082       .  S
C5          N487   1.361       .  A
C5          C458   1.477       .  S
N8            C9   1.354       .  A
N8          C498   1.352       .  A
N8          C864   1.440       .  S
C9           C10   1.381       .  A
C9          C387   1.467   1_556  S
C10         C497   1.372       .  A
C10          H13   1.082       .  S
C11          C12   1.381       .  A
C11         C496   1.371       .  A
C11          H14   1.082       .  S
C12         N494   1.352       .  A
C12         C418   1.465       .  S
N15          C16   1.362       .  A
N15         C505   1.361       .  A
N15         C318   1.442       .  S
C16          C17   1.382       .  A
C16         C338   1.482       .  S
C17         C504   1.370       .  A
C17          H20   1.082       .  S
C18          C19   1.380       .  A
C18         C503   1.370       .  A
C18          H21   1.082       .  S
C19         N501   1.361       .  A
C19         C358   1.483       .  S
N22          C23   1.365   1_556  A
N22         C512   1.363       .  A
N22         C744   1.444       .  S
C23          C24   1.385       .  A
C23         C267   1.492       .  S
C24         C511   1.370   1_554  A
C24          H27   1.082       .  S
C25          C26   1.378       .  A
C25         C510   1.370       .  A
C25          H28   1.082       .  S
C26         N508   1.363       .  A
C26         C298   1.484       .  S
N29          C30   1.358       .  A
N29         C519   1.357       .  A
N29         C673   1.440       .  S
C30          C31   1.381       .  A
C30         C227   1.476       .  S
C31         C518   1.373       .  A
C31          H34   1.082       .  S
C32          C33   1.381       .  A
C32         C517   1.372   1_554  A
C32          H35   1.082       .  S
C33         N515   1.358       .  A
C33         C207   1.476       .  S
N36          C37   1.359       .  A
N36         C526   1.361       .  A
N36         C127   1.441       .  S
C37          C38   1.384       .  A
C37         C178   1.484       .  S
C38         C525   1.372       .  A
C38          H41   1.082       .  S
C39          C40   1.381       .  A
C39         C524   1.372       .  A
C39          H42   1.082       .  S
C40         N522   1.361       .  A
C40         C147   1.487       .  S
O43         Mg45   2.150   1_655  S
O43        Mg537   2.160       .  S
O43          C78   1.236       .  S
C44          H83   1.081       .  S
C44          O57   1.236       .  S
C44          O81   1.271   1_565  A
Mg45        O560   2.151       .  S
Mg45         O85   2.262       .  S
Mg45         O56   2.301       .  S
Mg45        O575   2.302   1_455  S
O46         Mg71   2.159   1_445  S
O46        Mg574   2.159       .  S
O46          C67   1.236       .  S
O47          C78   1.271       .  A
O47         Mg71   2.302       .  S
C48         C307   1.492       .  S
C48          O50   1.271       .  A
C48          O62   1.277       .  A
O49          C77   1.269   1_655  A
O49         Mg51   2.296       .  S
O50         Mg82   2.266   1_545  S
Mg51         O57   2.169       .  S
Mg51        O529   2.160   1_554  S
Mg51         O65   2.289       .  S
Mg51        O539   2.314   1_554  S
C52         C367   1.493       .  S
C52          O90   1.274       .  A
C52          O58   1.277       .  A
O53          C60   1.275       .  A
O53        Mg537   2.313       .  S
H54          C67   1.081       .  S
C55          H80   1.081       .  S
C55          O69   1.237       .  S
C55          O70   1.272       .  A
O56          C79   1.270       .  A
O57        Mg557   2.154   1_554  S
O58        Mg574   2.324       .  S
C59         C438   1.500       .  S
C59          O72   1.276       .  A
C59          O64   1.276       .  A
C60         C138   1.481       .  S
C60          O87   1.274       .  A
Mg61         O68   2.156   1_545  S
Mg61        O555   2.160       .  S
Mg61         O63   2.304       .  S
Mg61         O90   2.277       .  S
Mg61        O548   2.316       .  S
O62        Mg547   2.315   1_554  S
O63          C67   1.271       .  A
O64        Mg557   2.323   1_544  S
O65          C84   1.274       .  A
O66          C86   1.278       .  A
O66        Mg568   2.333       .  S
O68        Mg568   2.156       .  S
O68          C79   1.236       .  S
O69         Mg88   2.162       .  S
O69        Mg547   2.159   1_554  S
O70         Mg82   2.306   1_545  S
Mg71        O543   2.153       .  S
Mg71         O87   2.274       .  S
Mg71        O550   2.321   1_565  S
O72         Mg88   2.294   1_655  S
H73          C78   1.081       .  S
O74         Mg82   2.147       .  S
O74        Mg531   2.152   1_554  S
O74          C77   1.235       .  S
H75          C77   1.081       .  S
H76          C79   1.081       .  S
O81         Mg88   2.307   1_655  S
Mg82        O554   2.156   1_554  S
Mg82        O552   2.333   1_554  S
C84         C198   1.493       .  S
C84          O89   1.275       .  A
O85          C86   1.271       .  A
C86         C247   1.481       .  S
Mg88        O532   2.159   1_554  S
Mg88        O544   2.325   1_554  S
O89        Mg531   2.303   1_654  S
C91          C92   1.530       .  S
C91          C97   1.534       .  S
C91          C95   1.529       .  S
C91         C407   1.530       .  S
C92          H99   1.087       .  S
C92          C93   1.359   1_455  D
C93          C94   1.542   1_655  S
C93         C238   1.479       .  S
C94          C98   1.555       .  S
C94          C96   1.562   1_455  S
C94         H100   1.102   1_455  S
C95         H101   1.084       .  S
C95          C96   1.374   1_455  D
C96         C447   1.519       .  S
C97         H102   1.083       .  S
C97          C98   1.363       .  D
C98         C278   1.491       .  S
C103        C104   1.533       .  S
C103        C109   1.552       .  S
C103        C107   1.533       .  S
C103        C158   1.544       .  S
C104        H111   1.087       .  S
C104        C105   1.364   1_565  D
C105        C106   1.546   1_545  S
C105        C327   1.486       .  S
C106        C110   1.541       .  S
C106        C108   1.545   1_565  S
C106        H112   1.110   1_565  S
C107        H113   1.086       .  S
C107        C108   1.365   1_565  D
C108        C478   1.488       .  S
C109        H114   1.081       .  S
C109        C110   1.371       .  D
C110        C287   1.496       .  S
C115        C116   1.533       .  S
C115        C121   1.542       .  S
C115        C119   1.540       .  S
C115        C398   1.539       .  S
C116        H123   1.086       .  S
C116        C117   1.362       .  D
C117        C118   1.539       .  S
C117        C218   1.476       .  S
C118        C122   1.541       .  S
C118        C120   1.548       .  S
C118        H124   1.110       .  S
C119        H125   1.078       .  S
C119        C120   1.363       .  D
C120        C347   1.489       .  S
C121        H126   1.085       .  S
C121        C122   1.370       .  D
C122        C167   1.495       .  S
C127        C128   1.408       .  A
C127        C618   1.404       .  A
C128        C129   1.396       .  A
C128       Br144   1.917       .  S
C129        C130   1.402       .  A
C129        H133   1.084       .  S
C130        C617   1.411       .  A
C130        C134   1.482       .  S
C131        C132   1.403       .  A
C131        C616   1.411       .  A
C131       Br143   1.917   1_556  S
C132        C613   1.404       .  A
C132        H135   1.083       .  S
C134        C140   1.410       .  A
C134        C622   1.401       .  A
C136        C137   1.397       .  A
C136        C620   1.401       .  A
C136        H141   1.084   1_556  S
C137        C624   1.411       .  A
C137       Br145   1.920   1_556  S
C138        C139   1.406       .  A
C138        C623   1.411       .  A
C139        C140   1.405       .  A
C139        H142   1.083       .  S
C140       Br146   1.918       .  S
C147        C148   1.413   1_556  A
C147        C152   1.406       .  A
C148        C149   1.402       .  A
C148       Br164   1.916       .  S
C149        C150   1.403       .  A
C149        H153   1.084       .  S
C150        C151   1.408       .  A
C150        C154   1.486       .  S
C151        C152   1.400   1_554  A
C151       Br163   1.920   1_554  S
C152        H641   1.084       .  S
C154        C156   1.399       .  A
C154        C160   1.406       .  A
H155        C638   1.084       .  S
C156        C157   1.404       .  A
C156        H161   1.084       .  S
C157        C158   1.426       .  A
C157       Br165   1.924   1_565  S
C158        C159   1.412       .  A
C159        C160   1.397       .  A
C159        H162   1.076       .  S
C160       Br166   1.922       .  S
C167        C168   1.416       .  A
C167        C172   1.406       .  A
C168        C169   1.398       .  A
C168       Br184   1.915       .  S
C169        C170   1.401       .  A
C169        H173   1.083       .  S
C170        C171   1.412       .  A
C170        C174   1.490       .  S
C171        C172   1.403       .  A
C171       Br183   1.920       .  S
C172        H175   1.083       .  S
C174        C176   1.401       .  A
C174        C180   1.415       .  A
C176        C177   1.394       .  A
C176        H181   1.083       .  S
C177        C178   1.412       .  A
C177       Br671   1.922       .  S
C178        C179   1.404       .  A
C179        C180   1.406       .  A
C179        H182   1.083       .  S
C180       Br186   1.918       .  S
Br185       C663   1.922       .  S
C187        N515   1.441       .  S
C187        C192   1.404       .  A
C187        C674   1.409   1_554  A
C188        C189   1.400       .  A
C188        C673   1.408       .  A
C188       Br204   1.914       .  S
C189        C676   1.403       .  A
C189        H193   1.084       .  S
C190        C191   1.409       .  A
C190        C675   1.404   1_554  A
C190        C194   1.486       .  S
C191        C192   1.403       .  A
C191       Br203   1.917       .  S
C192        H195   1.083       .  S
C194        C200   1.407       .  A
C194        C682   1.403       .  A
C196        C197   1.404       .  A
C196        C680   1.403       .  A
C196        H201   1.083       .  S
C197        C684   1.416       .  A
C197       Br205   1.920       .  S
C198        C199   1.410       .  A
C198        C683   1.416       .  A
C199        C200   1.400       .  A
C199        H202   1.083   1_554  S
C200       Br206   1.920   1_554  S
C207        C208   1.408       .  A
C207        C212   1.404       .  A
C208        C209   1.400       .  A
C208       Br224   1.916   1_554  S
C209        C210   1.402       .  A
C209        H213   1.084       .  S
C210        C211   1.407       .  A
C210        C214   1.479       .  S
C211        C212   1.401       .  A
C211       Br223   1.917       .  S
C212        H215   1.083       .  S
C214        C216   1.404       .  A
C214        C220   1.407       .  A
C216        C217   1.399       .  A
C216        H221   1.084       .  S
C217        C218   1.406       .  A
C217       Br225   1.919       .  S
C218        C219   1.404       .  A
C219        C220   1.402       .  A
C219        H222   1.084       .  S
C220       Br226   1.917       .  S
C227        C228   1.407       .  A
C227        C232   1.402       .  A
C228        C229   1.403       .  A
C228       Br730   1.918       .  S
C229        C230   1.406       .  A
C229        H233   1.083       .  S
C230        C231   1.409       .  A
C230        C234   1.485       .  S
C231        C232   1.398       .  A
C231       Br243   1.920       .  S
C232        H235   1.083       .  S
C234        C236   1.406       .  A
C234        C240   1.409       .  A
C236        C237   1.399       .  A
C236        H241   1.084       .  S
C237        C238   1.405       .  A
C237       Br245   1.917       .  S
C238        C239   1.404       .  A
C239        C240   1.402       .  A
C239        H242   1.083   1_655  S
C240       Br246   1.918       .  S
Br244       C714   1.918   1_554  S
C247        C252   1.405       .  A
C247        C734   1.413       .  A
C248        C249   1.399   1_554  A
C248        C733   1.413   1_554  A
C248       Br264   1.921       .  S
C249        C736   1.401       .  A
C249        H253   1.084   1_556  S
C250        C251   1.411       .  A
C250        C735   1.401       .  A
C250        C254   1.485       .  S
C251        C252   1.405       .  A
C251       Br263   1.918       .  S
C252        H255   1.083       .  S
C254        C256   1.405       .  A
C254        C746   1.409       .  A
C256        C257   1.404       .  A
C256        H261   1.083       .  S
C257        C258   1.411       .  A
C257       Br265   1.917       .  S
C258        N508   1.444       .  S
C258        C745   1.404       .  A
C259        C260   1.399   1_554  A
C259        C744   1.404   1_554  A
C259        H262   1.083       .  S
C260        C740   1.408       .  A
C260       Br266   1.919   1_556  S
C267        C268   1.413       .  A
C267        C272   1.405       .  A
C268        C269   1.397       .  A
C268       Br284   1.923   1_554  S
C269        C270   1.404       .  A
C269        H273   1.083       .  S
C270        C271   1.417       .  A
C270        C274   1.499       .  S
C271        C272   1.408       .  A
C271       Br283   1.918       .  S
C272        H275   1.083       .  S
C274        C276   1.405       .  A
C274        C280   1.416       .  A
C276        C277   1.400       .  A
C276        H281   1.083       .  S
C277        C278   1.413       .  A
C277       Br285   1.922       .  S
C278        C279   1.401       .  A
C279        C280   1.405       .  A
C279        H282   1.079       .  S
C280       Br286   1.920       .  S
C287        C288   1.416       .  A
C287        C292   1.407       .  A
C288        C289   1.406       .  A
C288       Br304   1.915       .  S
C289        C290   1.402       .  A
C289        H293   1.083       .  S
C290        C291   1.407       .  A
C290        C294   1.484       .  S
C291        C292   1.398       .  A
C291       Br303   1.919       .  S
C292        H295   1.083       .  S
C294        C296   1.403       .  A
C294        C300   1.408       .  A
C296        C297   1.402       .  A
C296        H301   1.083       .  S
C297        C298   1.409       .  A
C297       Br305   1.916       .  S
C298        C299   1.406       .  A
C299        C300   1.403       .  A
C299        H788   1.083       .  S
C300       Br306   1.918       .  S
H302        C785   1.083   1_554  S
C307        C308   1.419       .  A
C307        C798   1.409       .  A
C308        C309   1.402       .  A
C308       Br324   1.922       .  S
C309        C310   1.401       .  A
C309        H313   1.084       .  S
C310        C797   1.408       .  A
C310        C314   1.483       .  S
C311        C312   1.398       .  A
C311        C796   1.408       .  A
C311       Br323   1.921       .  S
C312        C793   1.409       .  A
C312        H315   1.083       .  S
C314        C320   1.408       .  A
C314        C802   1.404       .  A
C316        C317   1.402       .  A
C316        C800   1.404       .  A
C316        H321   1.083       .  S
C317        C804   1.411       .  A
C317       Br325   1.916       .  S
C318        C319   1.404       .  A
C318        C803   1.411       .  A
C319        C320   1.398       .  A
C319        H322   1.083       .  S
C320       Br326   1.919       .  S
C327        C328   1.414       .  A
C327        C332   1.402       .  A
C328        C329   1.400       .  A
C328       Br344   1.921   1_545  S
C329        C330   1.400       .  A
C329        H333   1.083       .  S
C330        C331   1.410       .  A
C330        C334   1.481       .  S
C331        C332   1.403       .  A
C331       Br343   1.918       .  S
C332        H335   1.082       .  S
C334        C336   1.405       .  A
C334        C340   1.405       .  A
C336        C337   1.406       .  A
C336        H341   1.083       .  S
C337        C338   1.410       .  A
C337       Br345   1.916       .  S
C338        C339   1.404       .  A
C339        C340   1.396       .  A
C339        H342   1.084       .  S
C340       Br346   1.919       .  S
C347        C348   1.418       .  A
C347        C352   1.402       .  A
C348        C349   1.401       .  A
C348       Br364   1.922       .  S
C349        C350   1.400       .  A
C349        H353   1.084       .  S
C350        C351   1.410       .  A
C350        C354   1.482       .  S
C351        C352   1.401       .  A
C351       Br363   1.919       .  S
C352        H355   1.083       .  S
C354        C356   1.402       .  A
C354        C360   1.406       .  A
C356        C357   1.401       .  A
C356        H361   1.084       .  S
C357        C358   1.411       .  A
C357       Br365   1.912       .  S
C358        C359   1.406       .  A
C359        C360   1.401       .  A
C359        H362   1.084       .  S
C360       Br366   1.918       .  S
C367        C368   1.418       .  A
C367        C858   1.409       .  A
C368        C369   1.406       .  A
C368       Br384   1.921       .  S
C369        C370   1.402       .  A
C369        H373   1.083       .  S
C370        C857   1.405       .  A
C370        C374   1.483       .  S
C371        C372   1.400       .  A
C371        C856   1.406       .  A
C371       Br383   1.920       .  S
C372        C853   1.409       .  A
C372        H375   1.083       .  S
C374        C376   1.405       .  A
C374        C380   1.408       .  A
C376        C377   1.403       .  A
C376        H381   1.083       .  S
C377        C378   1.407       .  A
C377       Br385   1.914       .  S
C378        N494   1.440       .  S
C378        C865   1.402       .  A
C379        C864   1.402       .  A
C379        C866   1.399       .  A
C379        H382   1.083       .  S
C380        C865   1.399       .  A
C380       Br872   1.917       .  S
Br386       C866   1.917       .  S
C387        C388   1.407       .  A
C387        C392   1.400       .  A
C388        C389   1.400       .  A
C388       Br890   1.917   1_554  S
C389        C390   1.403       .  A
C389        H393   1.083       .  S
C390        C391   1.407       .  A
C390        C394   1.472       .  S
C391        C392   1.393       .  A
C391       Br403   1.921       .  S
C392        H395   1.084       .  S
C394        C396   1.396       .  A
C394        C400   1.399       .  A
C396        C397   1.397       .  A
C396        H401   1.084       .  S
C397        C398   1.424       .  A
C397       Br405   1.921       .  S
C398        C399   1.417       .  A
C399        C400   1.397       .  A
C399        H402   1.072       .  S
C400       Br406   1.920       .  S
Br404       C874   1.917       .  S
C407        C408   1.422       .  A
C407        C412   1.410       .  A
C408        C409   1.398       .  A
C408       Br424   1.924       .  S
C409        C410   1.398       .  A
C409        H413   1.083       .  S
C410        C411   1.406       .  A
C410        C414   1.476       .  S
C411        C412   1.393       .  A
C411       Br423   1.922       .  S
C412        H415   1.078       .  S
C414        C416   1.404       .  A
C414        C420   1.410       .  A
C416        C417   1.394       .  A
C416        H421   1.084       .  S
C417        C418   1.404       .  A
C417       Br425   1.919       .  S
C418        C419   1.401       .  A
C419        C420   1.397       .  A
C419        H422   1.084       .  S
C420       Br426   1.919       .  S
C427        N487   1.444       .  S
C427        C428   1.410       .  A
C427        C918   1.402   1_554  A
C428        C429   1.406       .  A
C428       Br444   1.915       .  S
C429        C430   1.405       .  A
C429        H433   1.083       .  S
C430        C917   1.410   1_554  A
C430        C434   1.489       .  S
C431        C432   1.401       .  A
C431        C916   1.410       .  A
C431       Br443   1.918       .  S
C432        C913   1.402       .  A
C432        H435   1.080       .  S
C434        C440   1.408       .  A
C434        C922   1.400       .  A
C436        C437   1.402       .  A
C436        C920   1.400       .  A
C436        H441   1.084       .  S
C437        C924   1.421       .  A
C437       Br445   1.922       .  S
C438        C439   1.411       .  A
C438        C923   1.421   1_554  A
C439        C440   1.406       .  A
C439        H442   1.083       .  S
C440       Br446   1.918       .  S
C447        C448   1.423       .  A
C447        C452   1.419       .  A
C448        C449   1.407       .  A
C448       Br464   1.913       .  S
C449        C450   1.401       .  A
C449        H453   1.084       .  S
C450        C451   1.399       .  A
C450        C454   1.483       .  S
C451        C452   1.395       .  A
C451       Br463   1.921       .  S
C452        H455   1.080       .  S
C454        C456   1.404       .  A
C454        C460   1.409       .  A
C456        C457   1.402       .  A
C456        H461   1.083       .  S
C457        C458   1.408       .  A
C457       Br465   1.917   1_554  S
C458        C459   1.403       .  A
C459        C460   1.399       .  A
C459        H462   1.084       .  S
C460       Br466   1.920       .  S
C467        C468   1.409       .  A
C467        C472   1.404       .  A
C468        C469   1.400       .  A
C468       Br484   1.918       .  S
C469        C470   1.404       .  A
C469        H473   1.084       .  S
C470        C471   1.412       .  A
C470        C474   1.488       .  S
C471        C472   1.403       .  A
C471       Br483   1.920       .  S
C472        H961   1.084       .  S
C474        C476   1.402       .  A
C474        C480   1.413       .  A
H475        C958   1.084   1_554  S
C476        C477   1.401       .  A
C476        H481   1.083       .  S
C477        C478   1.415       .  A
C477       Br485   1.921   1_545  S
C478        C479   1.401       .  A
C479        C480   1.402       .  A
C479        H482   1.082       .  S
C480       Br486   1.920       .  S
N487        C488   1.360   1_554  A
C488        C489   1.380       .  A
C488        C953   1.476       .  S
C489        H492   1.082       .  S
C490        C491   1.381       .  A
C490        H493   1.082       .  S
C491        C944   1.477       .  S
N494        C495   1.354       .  A
C495        C496   1.381       .  A
C495        C873   1.467       .  S
C496        H499   1.082       .  S
C497        C498   1.381       .  A
C497        H500   1.082       .  S
C498        C904   1.466       .  S
N501        C502   1.363       .  A
N501        C804   1.442       .  S
C502        C503   1.382       .  A
C502        C824   1.482       .  S
C503        H506   1.082       .  S
C504        C505   1.380       .  A
C504        H507   1.082       .  S
C505        C844   1.483   1_554  S
N508        C509   1.365       .  A
C509        C510   1.385       .  A
C509        C753   1.492       .  S
C510        H513   1.082       .  S
C511        C512   1.378       .  A
C511        H514   1.082       .  S
C512        C784   1.484       .  S
N515        C516   1.359   1_554  A
C516        C517   1.381       .  A
C516        C713   1.477       .  S
C517        H520   1.082       .  S
C518        C519   1.381       .  A
C518        H521   1.082       .  S
C519        C693   1.475       .  S
N522        C523   1.359       .  A
N522        C613   1.441       .  S
C523        C524   1.383       .  A
C523        C664   1.485       .  S
C524        H527   1.082       .  S
C525        C526   1.381       .  A
C525        H528   1.082       .  S
C526        C633   1.486       .  S
O529       Mg531   2.150   1_655  S
O529        C564   1.236       .  S
C530        H569   1.081       .  S
C530        O543   1.235       .  S
C530        O567   1.271   1_565  A
Mg531       O571   2.263       .  S
Mg531       O542   2.301       .  S
O532       Mg557   2.159   1_445  S
O532        C553   1.236       .  S
O533        C564   1.271       .  A
O533       Mg557   2.303       .  S
C534        C793   1.493       .  S
C534        O536   1.271       .  A
C534        O548   1.277       .  A
O535        C563   1.269   1_655  A
O535       Mg537   2.296       .  S
O536       Mg568   2.266   1_545  S
Mg537       O543   2.169       .  S
Mg537       O551   2.288       .  S
C538        C853   1.493       .  S
C538        O576   1.274       .  A
C538        O544   1.277       .  A
O539        C546   1.275       .  A
H540        C553   1.081       .  S
C541        H566   1.081       .  S
C541        O555   1.237       .  S
C541        O556   1.272       .  A
O542        C565   1.270       .  A
C545        C924   1.500       .  S
C545        O558   1.276       .  A
C545        O550   1.276       .  A
C546        C624   1.481       .  S
C546        O573   1.274       .  A
Mg547       O554   2.156   1_545  S
Mg547       O549   2.304       .  S
Mg547       O576   2.277       .  S
O549        C553   1.271       .  A
O551        C570   1.274       .  A
O552        C572   1.278       .  A
O554        C565   1.236       .  S
O555       Mg574   2.162       .  S
O556       Mg568   2.306   1_545  S
Mg557       O573   2.275       .  S
O558       Mg574   2.294   1_655  S
H559        C564   1.081       .  S
O560       Mg568   2.147       .  S
O560        C563   1.235       .  S
H561        C563   1.081       .  S
H562        C565   1.081       .  S
O567       Mg574   2.307   1_655  S
C570        C684   1.493       .  S
C570        O575   1.275       .  A
O571        C572   1.272       .  A
C572        C733   1.481       .  S
C577        C578   1.531       .  S
C577        C583   1.534       .  S
C577        C581   1.530       .  S
C577        C893   1.531       .  S
C578        H585   1.087       .  S
C578        C579   1.359   1_455  D
C579        C580   1.541   1_655  S
C579        C724   1.478       .  S
C580        C584   1.555       .  S
C580        C582   1.563   1_455  S
C580        H586   1.102   1_455  S
C581        H587   1.084       .  S
C581        C582   1.374   1_455  D
C582        C933   1.520       .  S
C583        H588   1.083       .  S
C583        C584   1.363       .  D
C584        C764   1.492       .  S
C589        C590   1.533       .  S
C589        C595   1.553       .  S
C589        C593   1.533       .  S
C589        C644   1.544       .  S
C590        H597   1.087       .  S
C590        C591   1.364   1_565  D
C591        C592   1.546   1_545  S
C591        C813   1.486       .  S
C592        C596   1.541       .  S
C592        C594   1.545   1_565  S
C592        H598   1.110   1_565  S
C593        H599   1.086       .  S
C593        C594   1.365   1_565  D
C594        C964   1.488       .  S
C595        H600   1.081       .  S
C595        C596   1.371       .  D
C596        C773   1.496       .  S
C601        C602   1.532       .  S
C601        C607   1.542       .  S
C601        C605   1.540       .  S
C601        C884   1.538       .  S
C602        H609   1.086       .  S
C602        C603   1.363       .  D
C603        C604   1.539       .  S
C603        C704   1.476       .  S
C604        C608   1.541       .  S
C604        C606   1.548       .  S
C604        H610   1.110       .  S
C605        H611   1.078       .  S
C605        C606   1.363       .  D
C606        C833   1.488       .  S
C607        H612   1.085       .  S
C607        C608   1.370       .  D
C608        C653   1.495       .  S
C613        C614   1.408       .  A
C614        C615   1.396       .  A
C614       Br630   1.917       .  S
C615        C616   1.402       .  A
C615        H619   1.084       .  S
C616        C620   1.482       .  S
C617        C618   1.403       .  A
C617       Br629   1.917       .  S
C618        H621   1.083       .  S
C620        C626   1.410       .  A
C622        C623   1.397       .  A
C622        H627   1.084       .  S
C623       Br631   1.920       .  S
C624        C625   1.406       .  A
C625        C626   1.405       .  A
C625        H628   1.083       .  S
C626       Br632   1.918       .  S
C633        C634   1.413       .  A
C633        C638   1.406       .  A
C634        C635   1.401       .  A
C634       Br650   1.916       .  S
C635        C636   1.403       .  A
C635        H639   1.084       .  S
C636        C637   1.408       .  A
C636        C640   1.486       .  S
C637        C638   1.400       .  A
C637       Br649   1.920       .  S
C640        C642   1.399       .  A
C640        C646   1.407       .  A
C642        C643   1.404       .  A
C642        H647   1.084       .  S
C643        C644   1.426       .  A
C643       Br651   1.924   1_565  S
C644        C645   1.412       .  A
C645        C646   1.397       .  A
C645        H648   1.076       .  S
C646       Br652   1.922       .  S
C653        C654   1.415       .  A
C653        C658   1.406       .  A
C654        C655   1.398       .  A
C654       Br670   1.915       .  S
C655        C656   1.401       .  A
C655        H659   1.083       .  S
C656        C657   1.412       .  A
C656        C660   1.490       .  S
C657        C658   1.403       .  A
C657       Br669   1.920       .  S
C658        H661   1.083       .  S
C660        C662   1.401       .  A
C660        C666   1.415       .  A
C662        C663   1.394       .  A
C662        H667   1.083       .  S
C663        C664   1.412       .  A
C664        C665   1.404       .  A
C665        C666   1.406       .  A
C665        H668   1.083       .  S
C666       Br672   1.918       .  S
C673        C678   1.403       .  A
C674        C675   1.400       .  A
C674       Br690   1.914       .  S
C675        H679   1.084       .  S
C676        C677   1.409       .  A
C676        C680   1.484       .  S
C677        C678   1.403       .  A
C677       Br689   1.917       .  S
C678        H681   1.083       .  S
C680        C686   1.406       .  A
C682        C683   1.404       .  A
C682        H687   1.083       .  S
C683       Br691   1.919       .  S
C684        C685   1.410       .  A
C685        C686   1.400       .  A
C685        H688   1.083       .  S
C686       Br692   1.920       .  S
C693        C694   1.408       .  A
C693        C698   1.403       .  A
C694        C695   1.399       .  A
C694       Br710   1.917       .  S
C695        C696   1.402       .  A
C695        H699   1.084       .  S
C696        C697   1.407       .  A
C696        C700   1.478       .  S
C697        C698   1.402       .  A
C697       Br709   1.917       .  S
C698        H701   1.083       .  S
C700        C702   1.403       .  A
C700        C706   1.407       .  A
C702        C703   1.398       .  A
C702        H707   1.084       .  S
C703        C704   1.407       .  A
C703       Br711   1.919       .  S
C704        C705   1.404       .  A
C705        C706   1.402       .  A
C705        H708   1.084       .  S
C706       Br712   1.917       .  S
C713        C714   1.408       .  A
C713        C718   1.403       .  A
C714        C715   1.403       .  A
C715        C716   1.406       .  A
C715        H719   1.083       .  S
C716        C717   1.408       .  A
C716        C720   1.485       .  S
C717        C718   1.397       .  A
C717       Br729   1.919       .  S
C718        H721   1.083       .  S
C720        C722   1.406       .  A
C720        C726   1.409       .  A
C722        C723   1.399       .  A
C722        H727   1.084       .  S
C723        C724   1.405       .  A
C723       Br731   1.918       .  S
C724        C725   1.404       .  A
C725        C726   1.402       .  A
C725        H728   1.083   1_655  S
C726       Br732   1.918       .  S
C733        C738   1.405       .  A
C734        C735   1.399       .  A
C734       Br750   1.921       .  S
C735        H739   1.084       .  S
C736        C737   1.411       .  A
C736        C740   1.485       .  S
C737        C738   1.405       .  A
C737       Br749   1.918       .  S
C738        H741   1.083       .  S
C740        C742   1.405       .  A
C742        C743   1.404       .  A
C742        H747   1.083       .  S
C743        C744   1.411       .  A
C743       Br751   1.917       .  S
C745        C746   1.399       .  A
C745        H748   1.083       .  S
C746       Br752   1.919       .  S
C753        C754   1.413       .  A
C753        C758   1.405       .  A
C754        C755   1.397       .  A
C754       Br770   1.923       .  S
C755        C756   1.404       .  A
C755        H759   1.083       .  S
C756        C757   1.416       .  A
C756        C760   1.499       .  S
C757        C758   1.408       .  A
C757       Br769   1.918       .  S
C758        H761   1.083       .  S
C760        C762   1.405       .  A
C760        C766   1.416       .  A
C762        C763   1.400       .  A
C762        H767   1.083       .  S
C763        C764   1.413       .  A
C763       Br771   1.922       .  S
C764        C765   1.401       .  A
C765        C766   1.405       .  A
C765        H768   1.079       .  S
C766       Br772   1.920       .  S
C773        C774   1.416       .  A
C773        C778   1.407       .  A
C774        C775   1.405       .  A
C774       Br790   1.915       .  S
C775        C776   1.402       .  A
C775        H779   1.083       .  S
C776        C777   1.407       .  A
C776        C780   1.484       .  S
C777        C778   1.399       .  A
C777       Br789   1.919       .  S
C778        H781   1.083       .  S
C780        C782   1.403       .  A
C780        C786   1.408       .  A
C782        C783   1.402       .  A
C782        H787   1.083       .  S
C783        C784   1.409       .  A
C783       Br791   1.916       .  S
C784        C785   1.406       .  A
C785        C786   1.403       .  A
C786       Br792   1.918       .  S
C793        C794   1.419       .  A
C794        C795   1.402       .  A
C794       Br810   1.922       .  S
C795        C796   1.401       .  A
C795        H799   1.084       .  S
C796        C800   1.483       .  S
C797        C798   1.398       .  A
C797       Br809   1.921   1_554  S
C798        H801   1.083   1_554  S
C800        C806   1.408       .  A
C802        C803   1.402       .  A
C802        H807   1.083       .  S
C803       Br811   1.916   1_554  S
C804        C805   1.403       .  A
C805        C806   1.398       .  A
C805        H808   1.083       .  S
C806       Br812   1.919       .  S
C813        C814   1.414       .  A
C813        C818   1.402       .  A
C814        C815   1.400       .  A
C814       Br830   1.921   1_545  S
C815        C816   1.400       .  A
C815        H819   1.083       .  S
C816        C817   1.410       .  A
C816        C820   1.481       .  S
C817        C818   1.403       .  A
C817       Br829   1.918       .  S
C818        H821   1.082       .  S
C820        C822   1.405       .  A
C820        C826   1.405       .  A
C822        C823   1.407       .  A
C822        H827   1.083       .  S
C823        C824   1.410       .  A
C823       Br831   1.916       .  S
C824        C825   1.404       .  A
C825        C826   1.396       .  A
C825        H828   1.084       .  S
C826       Br832   1.919       .  S
C833        C834   1.418       .  A
C833        C838   1.402       .  A
C834        C835   1.401       .  A
C834       Br850   1.922       .  S
C835        C836   1.399       .  A
C835        H839   1.084       .  S
C836        C837   1.410       .  A
C836        C840   1.482       .  S
C837        C838   1.401       .  A
C837       Br849   1.919       .  S
C838        H841   1.083       .  S
C840        C842   1.402       .  A
C840        C846   1.406       .  A
C842        C843   1.400       .  A
C842        H847   1.084       .  S
C843        C844   1.411       .  A
C843       Br851   1.912       .  S
C844        C845   1.406   1_556  A
C845        C846   1.401   1_554  A
C845        H848   1.084       .  S
C846       Br852   1.918   1_556  S
C853        C854   1.417       .  A
C854        C855   1.406       .  A
C854       Br870   1.921       .  S
C855        C856   1.403       .  A
C855        H859   1.083       .  S
C856        C860   1.483       .  S
C857        C858   1.400       .  A
C857       Br869   1.920       .  S
C858        H861   1.083       .  S
C860        C862   1.405   1_556  A
C860        C866   1.407       .  A
C862        C863   1.403       .  A
C862        H867   1.083       .  S
C863        C864   1.407   1_554  A
C863       Br871   1.914       .  S
C865        H868   1.083       .  S
C873        C874   1.407       .  A
C873        C878   1.400       .  A
C874        C875   1.400       .  A
C875        C876   1.403       .  A
C875        H879   1.083       .  S
C876        C877   1.407       .  A
C876        C880   1.471       .  S
C877        C878   1.392       .  A
C877       Br889   1.921       .  S
C878        H881   1.084       .  S
C880        C882   1.396       .  A
C880        C886   1.398       .  A
C882        C883   1.397       .  A
C882        H887   1.084       .  S
C883        C884   1.423       .  A
C883       Br891   1.921       .  S
C884        C885   1.417       .  A
C885        C886   1.396       .  A
C885        H888   1.072       .  S
C886       Br892   1.920       .  S
C893        C894   1.422       .  A
C893        C898   1.410       .  A
C894        C895   1.398       .  A
C894       Br910   1.924       .  S
C895        C896   1.398       .  A
C895        H899   1.083       .  S
C896        C897   1.406       .  A
C896        C900   1.476       .  S
C897        C898   1.394       .  A
C897       Br909   1.922       .  S
C898        H901   1.077       .  S
C900        C902   1.404       .  A
C900        C906   1.410       .  A
C902        C903   1.394       .  A
C902        H907   1.084       .  S
C903        C904   1.404       .  A
C903       Br911   1.919       .  S
C904        C905   1.401       .  A
C905        C906   1.398       .  A
C905        H908   1.084       .  S
C906       Br912   1.919       .  S
C913        C914   1.410       .  A
C914        C915   1.406       .  A
C914       Br930   1.915       .  S
C915        C916   1.405       .  A
C915        H919   1.083       .  S
C916        C920   1.489       .  S
C917        C918   1.401       .  A
C917       Br929   1.918       .  S
C918        H921   1.080       .  S
C920        C926   1.408       .  A
C922        C923   1.402   1_554  A
C922        H927   1.084   1_554  S
C923       Br931   1.922       .  S
C924        C925   1.411       .  A
C925        C926   1.406       .  A
C925        H928   1.083       .  S
C926       Br932   1.918       .  S
C933        C934   1.424       .  A
C933        C938   1.419       .  A
C934        C935   1.407       .  A
C934       Br950   1.913       .  S
C935        C936   1.401       .  A
C935        H939   1.084       .  S
C936        C937   1.399       .  A
C936        C940   1.484       .  S
C937        C938   1.396       .  A
C937       Br949   1.921       .  S
C938        H941   1.080       .  S
C940        C942   1.404       .  A
C940        C946   1.409       .  A
C942        C943   1.403       .  A
C942        H947   1.083       .  S
C943        C944   1.409       .  A
C943       Br951   1.917       .  S
C944        C945   1.403       .  A
C945        C946   1.399       .  A
C945        H948   1.084       .  S
C946       Br952   1.920       .  S
C953        C954   1.408       .  A
C953        C958   1.404       .  A
C954        C955   1.400       .  A
C954       Br970   1.918       .  S
C955        C956   1.404       .  A
C955        H959   1.084       .  S
C956        C957   1.411       .  A
C956        C960   1.487       .  S
C957        C958   1.403       .  A
C957       Br969   1.920       .  S
C960        C962   1.402       .  A
C960        C966   1.413       .  A
C962        C963   1.401       .  A
C962        H967   1.083       .  S
C963        C964   1.415       .  A
C963       Br971   1.921   1_545  S
C964        C965   1.402       .  A
C965        C966   1.402       .  A
C965        H968   1.082       .  S
C966       Br972   1.920       .  S
