geometry optimzed in LAMMPS
_audit_creation_date              2020-11-30 
_audit_creation_method            'lammps2cif' 
_symmetry_space_group_name_H-M    'P1' 
_symmetry_Int_Tables_number       1 
_symmetry_cell_setting            triclinic 
loop_ 
_symmetry_equiv_pos_as_xyz 
  x,y,z 
_cell_length_a                    48.6063059 
_cell_length_b                    48.81869591378523 
_cell_length_c                    48.95006728695158 
_cell_angle_alpha                 90.22164200287511 
_cell_angle_beta                  90.2946746448018 
_cell_angle_gamma                 89.72825826109913 
loop_ 
_atom_site_label 
_atom_site_type_symbol 
_atom_site_fract_x 
_atom_site_fract_y 
_atom_site_fract_z 
_atom_site_charge 
N1          N  0.24637807  0.87709155  0.00038484    -0.03000
C2          C  0.24747210  0.86237368  0.02412514    -0.00400
C3          C  0.25369205  0.83524440  0.01893868    -0.23300
C4          C  0.25672236  0.83267345  0.99142460    -0.23500
C5          C  0.25224918  0.85829658  0.98039261    -0.00500
H6          H  0.25506419  0.81884562  0.03372211     0.13300
H7          H  0.26055833  0.81378934  0.98038738     0.13300
N8          N  0.61154006  0.08923937  0.99767525    -0.03000
C9          C  0.59890778  0.09910779  0.02059982    -0.00400
C10         C  0.57628411  0.11485383  0.01351401    -0.23300
C11         C  0.57572401  0.11635087  0.98561640    -0.23500
C12         C  0.59795334  0.10138998  0.97637629    -0.00500
H13         H  0.56416972  0.12750372  0.02717104     0.13300
H14         H  0.56295011  0.13009235  0.97368080     0.13300
N15         N  0.83061716  0.98680565  0.32130712    -0.03000
C16         C  0.82046469  0.00942974  0.33429770    -0.00400
C17         C  0.80077716  0.00196504  0.35316305    -0.23300
C18         C  0.79748576  0.97427898  0.35089020    -0.23500
C19         C  0.81550103  0.96553759  0.33102997    -0.00500
H20         H  0.78726308  0.01562798  0.36434543     0.13300
H21         H  0.78137344  0.96235428  0.36024810     0.13300
N22         N  0.04205969  0.98198451  0.66693927    -0.03000
C23         C  0.05248378  0.00538815  0.65594471    -0.00400
C24         C  0.06979111  0.99900938  0.63454287    -0.23300
C25         C  0.07110905  0.97102562  0.63289844    -0.23500
C26         C  0.05439201  0.96087773  0.65328350    -0.00500
H27         H  0.08296009  0.01307228  0.62372119     0.13300
H28         H  0.08519265  0.95952493  0.62015738     0.13300
N29         N  0.93572537  0.65135477  0.10559222    -0.03000
C30         C  0.95548466  0.63976937  0.12190149    -0.00400
C31         C  0.94392527  0.62116756  0.13963447    -0.23300
C32         C  0.91626908  0.62181921  0.13506014    -0.23500
C33         C  0.91144030  0.64102816  0.11490082    -0.00500
H34         H  0.95404581  0.61035406  0.15615332     0.13300
H35         H  0.90101232  0.61219507  0.14784468     0.13300
N36         N  0.93925174  0.31594464  0.89260729    -0.03000
C37         C  0.96371464  0.32632368  0.88401289    -0.00400
C38         C  0.95914256  0.34826629  0.86673921    -0.23300
C39         C  0.93130167  0.35055870  0.86310047    -0.23500
C40         C  0.91960792  0.33009404  0.87844296    -0.00500
H41         H  0.97445117  0.35851120  0.85449450     0.13300
H42         H  0.92105078  0.36330795  0.84810798     0.13300
N43         N  0.61934554  0.88838872  0.99941998    -0.03000
C44         C  0.60665410  0.87464348  0.97856657    -0.00400
C45         C  0.58644285  0.85757839  0.98828736    -0.23300
C46         C  0.58737362  0.85953710  0.01605281    -0.23500
C47         C  0.60827468  0.87756585  0.02256236    -0.00500
H48         H  0.57484849  0.84259787  0.97668903     0.13300
H49         H  0.57697665  0.84593213  0.03000509     0.13300
N50         N  0.26165300  0.07990015  0.99724237    -0.03000
C51         C  0.27395732  0.09487021  0.97736281    -0.00400
C52         C  0.29275360  0.11286297  0.98848561    -0.23300
C53         C  0.29154758  0.10963110  0.01617856    -0.23500
C54         C  0.27189698  0.08989816  0.02122324    -0.00500
H55         H  0.30368480  0.12886146  0.97787032     0.13300
H56         H  0.30094348  0.12312587  0.03111407     0.13300
N57         N  0.85051252  0.98634838  0.73799136    -0.03000
C58         C  0.83970974  0.00771864  0.75247914    -0.00400
C59         C  0.82594716  0.99836830  0.77515034    -0.23300
C60         C  0.82751741  0.97039122  0.77442622    -0.23500
C61         C  0.84210375  0.96338329  0.75126208    -0.00500
H62         H  0.81310796  0.01039687  0.78870107     0.13300
H63         H  0.81608167  0.95659777  0.78733739     0.13300
N64         N  0.03340613  0.99209783  0.31988733    -0.03000
C65         C  0.04180291  0.01730657  0.32873310    -0.00400
C66         C  0.06077288  0.01467357  0.34967631    -0.23300
C67         C  0.06581134  0.98737664  0.35285567    -0.23500
C68         C  0.04942916  0.97385163  0.33405196    -0.00500
H69         H  0.07282343  0.03096089  0.35878042     0.13300
H70         H  0.08183493  0.97867872  0.36560616     0.13300
N71         N  0.94312714  0.65601866  0.90309462    -0.03000
C72         C  0.92043016  0.64402384  0.89162581    -0.00400
C73         C  0.92799529  0.62571092  0.87132299    -0.23300
C74         C  0.95575577  0.62707188  0.86898375    -0.23500
C75         C  0.96457430  0.64599615  0.88802556    -0.00500
H76         H  0.91448382  0.61506538  0.85724644     0.13300
H77         H  0.96792834  0.61732505  0.85320949     0.13300
N78         N  0.93120244  0.29881304  0.09119558    -0.03000
C79         C  0.91023796  0.31154395  0.10488318    -0.00400
C80         C  0.91998914  0.33350476  0.11978745    -0.23300
C81         C  0.94789664  0.33370963  0.11662688    -0.23500
C82         C  0.95450948  0.31170016  0.10006437    -0.00500
H83         H  0.90859969  0.34544950  0.13462965     0.13300
H84         H  0.96211399  0.34577238  0.12873345     0.13300
N85         N  0.33523683  0.48080371  0.82949517    -0.03000
C86         C  0.32599326  0.50471597  0.84063814    -0.00400
C87         C  0.31014713  0.49920453  0.86333301    -0.23300
C88         C  0.30822735  0.47127581  0.86535176    -0.23500
C89         C  0.32312122  0.46038770  0.84390229    -0.00500
H90         H  0.29753908  0.51377989  0.87441024     0.13300
H91         H  0.29434106  0.46040637  0.87864853     0.13300
N92         N  0.34022599  0.48888614  0.22230507    -0.03000
C93         C  0.32747238  0.51070505  0.23449395    -0.00400
C94         C  0.30793307  0.50184414  0.25279167    -0.23300
C95         C  0.30791110  0.47391067  0.25159632    -0.23500
C96         C  0.32751219  0.46636360  0.23269172    -0.00500
H97         H  0.29303209  0.51445557  0.26343465     0.13300
H98         H  0.29343040  0.46054800  0.26162199     0.13300
N99         N  0.11843122  0.37315695  0.49554486    -0.03000
C100        C  0.11225925  0.35651634  0.47383330    -0.00400
C101        C  0.10113614  0.33208965  0.48234396    -0.23300
C102        C  0.10042326  0.33307216  0.51007942    -0.23500
C103        C  0.11119842  0.35806014  0.51792069    -0.00500
H104        H  0.09550815  0.31475602  0.46966909     0.13300
H105        H  0.09451386  0.31642757  0.52334205     0.13300
O106        O  0.23160323  0.28462898  0.75021734    -0.78000
C107        C  0.24803732  0.20814846  0.70398901     0.83000
O108        O  0.14659583  0.26286307  0.70416218    -0.79100
O109        O  0.16987174  0.16762738  0.73291091    -0.80600
O110        O  0.20451658  0.21071374  0.81250379    -0.80400
O111        O  0.21933867  0.27599738  0.79304739    -0.79100
Zn112      Zn  0.21294214  0.25548659  0.72692720     1.55700
O113        O  0.21576606  0.17736109  0.78314818    -0.80400
Cd114      Cd  0.19217388  0.24331961  0.78816102     1.59700
Cd115      Cd  0.15054619  0.23445452  0.73587837     1.59600
O116        O  0.15399042  0.25533742  0.80289355    -0.80400
O117        O  0.18983899  0.23158903  0.74879507    -1.90900
Cd118      Cd  0.20265915  0.19246170  0.74522902     1.59900
O119        O  0.12556041  0.24653005  0.76807992    -0.80400
O120        O  0.23465691  0.18954638  0.71653303    -0.79100
C121        C  0.16483269  0.27675353  0.69169462     0.83500
C122        C  0.23255423  0.29023265  0.77568810     0.83100
O123        O  0.24211760  0.23347367  0.70699213    -0.78000
C124        C  0.21356094  0.18666059  0.80748033     0.84000
O125        O  0.19016964  0.27520823  0.69842815    -0.78100
C126        C  0.12983501  0.25424825  0.79267867     0.84100
C127        C  0.14538283  0.17229006  0.72442456     0.84400
O128        O  0.13562137  0.19655755  0.72285687    -0.80500
N129        N  0.76472843  0.38373348  0.50156323    -0.03000
C130        C  0.77642371  0.37301742  0.52475345    -0.00400
C131        C  0.79513632  0.35266159  0.51811816    -0.23300
C132        C  0.79420500  0.34943160  0.49048530    -0.23500
C133        C  0.77510998  0.36803962  0.48074961    -0.00500
H134        H  0.80568082  0.33907173  0.53216920     0.13300
H135        H  0.80435334  0.33332141  0.47903556     0.13300
N136        N  0.43898809  0.15977470  0.59810618    -0.03000
C137        C  0.41569478  0.14814103  0.60845579    -0.00400
C138        C  0.42239397  0.12840642  0.62759741    -0.23300
C139        C  0.45026280  0.12857693  0.63052597    -0.23500
C140        C  0.46000813  0.14829345  0.61300106    -0.00500
H141        H  0.40828674  0.11749899  0.64064147     0.13300
H142        H  0.46190707  0.11744740  0.64581825     0.13300
O143        O  0.64135901  0.28525831  0.74631935    -0.78000
C144        C  0.71316888  0.28372420  0.69292093     0.83000
O145        O  0.64530588  0.19342068  0.71698665    -0.79100
O146        O  0.74517905  0.20440702  0.73160025    -0.80600
O147        O  0.71994340  0.26719837  0.80454524    -0.80400
O148        O  0.65218412  0.28314012  0.79045830    -0.79100
Zn149      Zn  0.66488825  0.25968300  0.72496749     1.55700
O150        O  0.74962780  0.25788537  0.77104343    -0.80400
Cd151      Cd  0.68269242  0.25239780  0.78850244     1.59700
Cd152      Cd  0.67613057  0.19905676  0.74668480     1.59600
O153        O  0.67044337  0.21973317  0.81290769    -0.80400
O154        O  0.68756510  0.23855390  0.74974391    -1.90900
Cd155      Cd  0.72713340  0.24259428  0.73880160     1.59900
O156        O  0.66143654  0.18509118  0.78424953    -0.80400
O157        O  0.73136709  0.26994863  0.70600139    -0.79100
C158        C  0.63240223  0.21094186  0.70234933     0.83500
C159        C  0.63766522  0.29288084  0.77091109     0.83100
O160        O  0.68766747  0.28157889  0.69846950    -0.78000
C161        C  0.74434933  0.26661584  0.79498066     0.84000
O162        O  0.63834697  0.23629342  0.70351212    -0.78100
C163        C  0.66213176  0.19532915  0.80830579     0.84100
C164        C  0.73582512  0.18003232  0.73261249     0.84400
O165        O  0.71046928  0.17513252  0.73727244    -0.80500
N166        N  0.11623585  0.57669024  0.49652839    -0.03000
C167        C  0.10586462  0.58629246  0.52057922    -0.00400
C168        C  0.08430258  0.60421129  0.51557824    -0.23300
C169        C  0.08245072  0.60738181  0.48788563    -0.23500
C170        C  0.10271687  0.59107905  0.47670295    -0.00500
H171        H  0.07429770  0.61726947  0.53049245     0.13300
H172        H  0.07044565  0.62288703  0.47741099     0.13300
O173        O  0.18599934  0.77607743  0.79581664    -0.78000
C174        C  0.14102331  0.78918803  0.71960983     0.83000
O175        O  0.14091057  0.68947933  0.77443559    -0.79100
O176        O  0.17340848  0.71180718  0.68118101    -0.80600
O177        O  0.25129531  0.74516803  0.72795615    -0.80400
O178        O  0.22932676  0.76177805  0.79158548    -0.79100
Zn179      Zn  0.16313117  0.75537494  0.76784642     1.55700
O180        O  0.22347262  0.75678243  0.69338760    -0.80400
Cd181      Cd  0.22580599  0.73324025  0.75957665     1.59700
Cd182      Cd  0.17404705  0.69254638  0.74774140     1.59600
O183        O  0.24045020  0.69476153  0.77211851    -0.80400
O184        O  0.18670326  0.73162845  0.74568352    -1.90900
Cd185      Cd  0.18469982  0.74428728  0.70666908     1.59900
O186        O  0.20561997  0.66710554  0.76167378    -0.80400
O187        O  0.15585310  0.77619227  0.70229990    -0.79100
C188        C  0.12815907  0.70755580  0.78853022     0.83500
C189        C  0.21122871  0.77692010  0.80314836     0.83100
O190        O  0.14209695  0.78339281  0.74498564    -0.78000
C191        C  0.24751855  0.75423031  0.70379036     0.84000
O192        O  0.13481070  0.73278488  0.78772834    -0.78100
C193        C  0.23010538  0.67079304  0.77048380     0.84100
C194        C  0.16546713  0.68724015  0.68519788     0.84400
O195        O  0.16326789  0.67746382  0.70924249    -0.80500
N196        N  0.53015460  0.48633099  0.76932883    -0.03000
C197        C  0.54282033  0.50868022  0.75870052    -0.00400
C198        C  0.55865201  0.50128982  0.73649259    -0.23300
C199        C  0.55635996  0.47352844  0.73359733    -0.23500
C200        C  0.53930389  0.46472462  0.75422186    -0.00500
H201        H  0.57312813  0.51416818  0.72584787     0.13300
H202        H  0.56874037  0.46076305  0.72028557     0.13300
N203        N  0.44134017  0.80632983  0.60487173    -0.03000
C204        C  0.41812730  0.81843791  0.61492707    -0.00400
C205        C  0.42499741  0.83910848  0.63308476    -0.23300
C206        C  0.45301075  0.83881594  0.63572454    -0.23500
C207        C  0.46251716  0.81821441  0.61888065    -0.00500
H208        H  0.41100061  0.85005690  0.64641562     0.13300
H209        H  0.46477157  0.84976033  0.65107715     0.13300
N210        N  0.75948700  0.58647672  0.49952103    -0.03000
C211        C  0.77159902  0.60099227  0.47903292    -0.00400
C212        C  0.79172995  0.61802851  0.48935563    -0.23300
C213        C  0.79133928  0.61518578  0.51705433    -0.23500
C214        C  0.77069204  0.59683360  0.52309112    -0.00500
H215        H  0.80323218  0.63327565  0.47826181     0.13300
H216        H  0.80179198  0.62853639  0.53141575     0.13300
O217        O  0.74112064  0.78242005  0.75797437    -0.78000
C218        C  0.67113484  0.77950473  0.81256929     0.83000
O219        O  0.73973689  0.68946717  0.78293377    -0.79100
O220        O  0.63999746  0.69968211  0.77923319    -0.80600
O221        O  0.65844312  0.76284381  0.70298532    -0.80400
O222        O  0.72613457  0.78233581  0.71497467    -0.79100
Zn223      Zn  0.71840471  0.75569530  0.77897410     1.55700
O224        O  0.63062746  0.75034901  0.73677971    -0.80400
Cd225      Cd  0.69732032  0.74986165  0.71684706     1.59700
Cd226      Cd  0.70619931  0.69463816  0.75626441     1.59600
O227        O  0.70907742  0.71818178  0.69043265    -0.80400
O228        O  0.69476403  0.73440829  0.75500995    -1.90900
Cd229      Cd  0.65589644  0.73745484  0.76810342     1.59900
O230        O  0.71642903  0.68143962  0.71670523    -0.80400
O231        O  0.65277724  0.76574938  0.79987089    -0.79100
C232        C  0.75220328  0.70671866  0.79827065     0.83500
C233        C  0.74212325  0.79156010  0.73369983     0.83100
O234        O  0.69654820  0.77718230  0.80671031    -0.78000
C235        C  0.63435894  0.75993102  0.71292763     0.84000
O236        O  0.74531748  0.73188028  0.79874246    -0.78100
C237        C  0.71568110  0.69293534  0.69324440     0.84100
C238        C  0.64924866  0.67521430  0.77795760     0.84400
O239        O  0.67379236  0.66999870  0.77012786    -0.80500
N240        N  0.43314390  0.15721662  0.39524681    -0.03000
C241        C  0.40973774  0.14674241  0.38363928    -0.00400
C242        C  0.41633425  0.12910766  0.36241565    -0.23300
C243        C  0.44418521  0.12938050  0.35975600    -0.23500
C244        C  0.45404063  0.14699707  0.37953452    -0.00500
H245        H  0.40215714  0.11968825  0.34810820     0.13300
H246        H  0.45579529  0.11966003  0.34355489     0.13300
O247        O  0.63159030  0.23646378  0.29575020    -0.78000
C248        C  0.70590922  0.28328593  0.30967038     0.83000
O249        O  0.65149060  0.28128691  0.20944323    -0.79100
O250        O  0.74690862  0.25168512  0.23393252    -0.80600
O251        O  0.70368764  0.17335504  0.26452524    -0.80400
O252        O  0.63906768  0.19340920  0.28230613    -0.79100
Zn253      Zn  0.65837311  0.26023020  0.27513822     1.55700
O254        O  0.73586390  0.20267176  0.27886182    -0.80400
Cd255      Cd  0.67030926  0.19785982  0.25331918     1.59700
Cd256      Cd  0.68039932  0.24983316  0.21315606     1.59600
O257        O  0.65738644  0.18345878  0.21483313    -0.80400
O258        O  0.68209769  0.23729823  0.25206990    -1.90900
Cd259      Cd  0.72096914  0.24030101  0.26550264     1.59900
O260        O  0.66846539  0.21799897  0.18743814    -0.80400
O261        O  0.72383901  0.26893529  0.29699000    -0.79100
C262        C  0.63581298  0.29331014  0.22667429     0.83500
C263        C  0.62616269  0.21095256  0.29698416     0.83100
O264        O  0.68041442  0.28192122  0.30345436    -0.78000
C265        C  0.72728668  0.17831634  0.27493995     0.84000
O266        O  0.63642404  0.28719744  0.25200638    -0.78100
C267        C  0.65967570  0.19368399  0.19094978     0.84100
C268        C  0.74314922  0.25964350  0.20938385     0.84400
O269        O  0.71903782  0.26174084  0.19906410    -0.80500
N270        N  0.43582929  0.80436315  0.40340257    -0.03000
C271        C  0.45583602  0.81636172  0.38787857    -0.00400
C272        C  0.44455073  0.83528875  0.37015049    -0.23300
C273        C  0.41685751  0.83466231  0.37381146    -0.23500
C274        C  0.41170511  0.81522513  0.39354322    -0.00500
H275        H  0.45508324  0.84643763  0.35428134     0.13300
H276        H  0.40180187  0.84478183  0.36090583     0.13300
N277        N  0.53743372  0.48333976  0.16720797    -0.03000
C278        C  0.54925812  0.50591603  0.15587049    -0.00400
C279        C  0.56823866  0.49812291  0.13636216    -0.23300
C280        C  0.56912145  0.47013818  0.13625915    -0.23500
C281        C  0.55049461  0.46148383  0.15559806    -0.00500
H282        H  0.58248506  0.51136051  0.12584825     0.13300
H283        H  0.58386488  0.45762451  0.12530395     0.13300
O284        O  0.68273014  0.69043860  0.30082517    -0.78000
C285        C  0.62478868  0.75826140  0.29107814     0.83000
O286        O  0.65331611  0.68686722  0.20593374    -0.79100
O287        O  0.65896990  0.78359892  0.21013333    -0.80600
O288        O  0.73625413  0.77015411  0.27330171    -0.80400
O289        O  0.72606853  0.70375376  0.29494354    -0.79100
Zn290      Zn  0.66038115  0.70964335  0.27151531     1.55700
O291        O  0.70116591  0.79707182  0.26094980    -0.80400
Cd292      Cd  0.72293125  0.73095054  0.26189289     1.59700
Cd293      Cd  0.68238365  0.71804695  0.20975900     1.59600
O294        O  0.74914271  0.71794989  0.23051369    -0.80400
O295        O  0.68377415  0.73206795  0.24840259    -1.90900
Cd296      Cd  0.66993379  0.77085359  0.24910675     1.59900
O297        O  0.72072345  0.70365793  0.19747738    -0.80400
O298        O  0.63714863  0.77584462  0.27632925    -0.79100
C299        C  0.63933516  0.67416445  0.22387902     0.83500
C300        C  0.70806752  0.68969836  0.30768816     0.83100
O301        O  0.63171894  0.73302567  0.29059911    -0.78000
C302        C  0.72554586  0.79391585  0.27018571     0.84000
O303        O  0.64068318  0.68056238  0.24914989    -0.78100
C304        C  0.74492526  0.70708917  0.20707338     0.84100
C305        C  0.66305937  0.77370118  0.18631597     0.84400
O306        O  0.67259518  0.74955905  0.18275484    -0.80500
O307        O  0.12899315  0.73842980  0.21093509    -0.78000
C308        C  0.13470531  0.79619276  0.28053075     0.83000
O309        O  0.22222784  0.77544976  0.21106507    -0.79100
O310        O  0.21684975  0.76435044  0.30952661    -0.80600
O311        O  0.15985884  0.68459350  0.28801225    -0.80400
O312        O  0.13968573  0.69581906  0.22303875    -0.79100
Zn313      Zn  0.15633564  0.76230714  0.23201036     1.55700
O314        O  0.16656307  0.71900575  0.31750104    -0.80400
Cd315      Cd  0.17196489  0.70077004  0.25051430     1.59700
Cd316      Cd  0.22083578  0.74582566  0.24202827     1.59600
O317        O  0.20568139  0.67810257  0.23657352    -0.80400
O318        O  0.18172781  0.74051453  0.25436113    -1.90900
Cd319      Cd  0.17873808  0.75214115  0.29376989     1.59900
O320        O  0.23871147  0.70888209  0.22955817    -0.80400
O321        O  0.15022257  0.78415972  0.29796707    -0.79100
C322        C  0.20291841  0.78854167  0.19884533     0.83500
C323        C  0.12489769  0.71265021  0.20942862     0.83100
O324        O  0.13490541  0.78928545  0.25536861    -0.78000
C325        C  0.15979294  0.69427723  0.31228097     0.84000
O326        O  0.17772387  0.78482197  0.20493775    -0.78100
C327        C  0.23018604  0.68419101  0.22957794     0.84100
C328        C  0.24106862  0.76395215  0.29956440     0.84400
O329        O  0.24556863  0.75759781  0.27468975    -0.80500
O330        O  0.23830701  0.23494022  0.28445099    -0.78000
C331        C  0.23375224  0.29271346  0.21823839     0.83000
O332        O  0.14433412  0.26857264  0.28342729    -0.79100
O333        O  0.15142671  0.26062495  0.18519773    -0.80600
O334        O  0.21182506  0.18208738  0.20633274    -0.80400
O335        O  0.23097521  0.19168350  0.27254294    -0.79100
Zn336      Zn  0.21025663  0.25732588  0.26400197     1.55700
O337        O  0.20367154  0.21645797  0.17716485    -0.80400
Cd338      Cd  0.19900817  0.19666725  0.24388632     1.59700
Cd339      Cd  0.14777197  0.23955789  0.25208284     1.59600
O340        O  0.16583229  0.17246904  0.25520037    -0.80400
O341        O  0.18702764  0.23594583  0.24007660    -1.90900
Cd342      Cd  0.19045957  0.24963929  0.20113407     1.59900
O343        O  0.13253470  0.20228556  0.26557513    -0.80400
O344        O  0.21912820  0.28265418  0.19880060    -0.79100
C345        C  0.16287990  0.28135442  0.29692534     0.83500
C346        C  0.24426182  0.20962159  0.28627675     0.83100
O347        O  0.23133679  0.28411578  0.24256475    -0.78000
C348        C  0.21118267  0.19180220  0.18218616     0.84000
O349        O  0.18827500  0.27834065  0.29146076    -0.78100
C350        C  0.14158113  0.17778226  0.26368238     0.84100
C351        C  0.12703970  0.25789308  0.19457357     0.84400
O352        O  0.12278523  0.25003460  0.21903594    -0.80500
C353        C  0.58126191  0.62736859  0.15456399    -0.17400
C354        C  0.56687655  0.60417049  0.14563518    -0.19500
C355        C  0.56449905  0.58116049  0.16257912     0.21100
C356        C  0.57581753  0.58197162  0.18918318    -0.02500
C357        C  0.59008663  0.60550817  0.19830029    -0.05500
C358        C  0.59336105  0.62806699  0.18066841     0.21400
C359        C  0.60197116  0.60602123  0.22466783     0.19600
C360        C  0.59917516  0.58321061  0.24178924    -0.17000
C361        C  0.58557346  0.55971258  0.23254606    -0.19200
C362        C  0.57417856  0.55874453  0.20616872     0.21000
C363        C  0.56272595  0.53443116  0.19591565    -0.32200
C364        C  0.55229347  0.53310436  0.16910502     0.01700
C365        C  0.55254256  0.55681209  0.15282648    -0.23600
C366        C  0.60927444  0.65056608  0.18918218    -0.28100
C367        C  0.62145923  0.65106893  0.21533045     0.07400
C368        C  0.61716199  0.62896120  0.23315584    -0.26800
H369        H  0.58337216  0.64457769  0.14082996     0.12100
H370        H  0.55829205  0.60393324  0.12517590     0.13300
H371        H  0.60814678  0.58326824  0.26209159     0.12300
H372        H  0.58444026  0.54207583  0.24586312     0.11600
H373        H  0.56366610  0.51595018  0.20812247     0.17000
H374        H  0.54536139  0.55561306  0.13185816     0.12900
H375        H  0.61227820  0.66764778  0.17544566     0.15700
H376        H  0.62657462  0.62914480  0.25328094     0.15500
C377        C  0.31327736  0.82891356  0.38209500    -0.17400
C378        C  0.28962601  0.82273689  0.36684722    -0.19500
C379        C  0.28838515  0.79873577  0.35101670     0.21100
C380        C  0.31097315  0.78038838  0.35121610    -0.02500
C381        C  0.33466098  0.78637112  0.36705783    -0.05500
C382        C  0.33602116  0.81105649  0.38206004     0.21400
C383        C  0.35754588  0.76841344  0.36664558     0.19600
C384        C  0.35611342  0.74417422  0.35117869    -0.17000
C385        C  0.33275348  0.73834385  0.33535563    -0.19200
C386        C  0.31031046  0.75655847  0.33483164     0.21000
C387        C  0.28746212  0.75163534  0.31783694    -0.32200
C388        C  0.26490069  0.76979550  0.31755056     0.01700
C389        C  0.26524807  0.79304888  0.33455531    -0.23600
C390        C  0.36079627  0.81845822  0.39497462    -0.28100
C391        C  0.38440196  0.80178952  0.39268603     0.07400
C392        C  0.38216311  0.77605685  0.37985455    -0.26800
H393        H  0.31401463  0.84800186  0.39343402     0.12100
H394        H  0.27254997  0.83706982  0.36693149     0.13300
H395        H  0.37342949  0.73013053  0.35061681     0.12300
H396        H  0.33247039  0.71982618  0.32309120     0.11600
H397        H  0.28706791  0.73351445  0.30496103     0.17000
H398        H  0.24789020  0.80706085  0.33432849     0.12900
H399        H  0.36261534  0.83854177  0.40433006     0.15700
H400        H  0.40043618  0.76347167  0.37742828     0.15500
C401        C  0.54755411  0.83840439  0.35413956    -0.17400
C402        C  0.57027537  0.83057859  0.33840240    -0.19500
C403        C  0.57517392  0.80283951  0.33238968     0.21100
C404        C  0.55747242  0.78276714  0.34320898    -0.02500
C405        C  0.53437559  0.79068932  0.35893270    -0.05500
C406        C  0.52918646  0.81866580  0.36396081     0.21400
C407        C  0.51576375  0.77072299  0.36844374     0.19600
C408        C  0.52129998  0.74293157  0.36334355    -0.17000
C409        C  0.54438598  0.73506351  0.34813397    -0.19200
C410        C  0.56226632  0.75483732  0.33752919     0.21000
C411        C  0.58446111  0.74715141  0.32085808    -0.32200
C412        C  0.60182409  0.76699259  0.30927930     0.01700
C413        C  0.59710718  0.79486249  0.31536520    -0.23600
C414        C  0.50476930  0.82654579  0.37702061    -0.28100
C415        C  0.48482389  0.80699559  0.38415328     0.07400
C416        C  0.49109223  0.77900425  0.38116880    -0.26800
H417        H  0.54385981  0.85999976  0.35788694     0.12100
H418        H  0.58371545  0.84626993  0.33049989     0.13300
H419        H  0.50738854  0.72728595  0.37053026     0.12300
H420        H  0.54787188  0.71350002  0.34408518     0.11600
H421        H  0.58782851  0.72563683  0.31642065     0.17000
H422        H  0.61044766  0.81032798  0.30685225     0.12900
H423        H  0.50015146  0.84815783  0.37953509     0.15700
H424        H  0.47580203  0.76385996  0.38647326     0.15500
C425        C  0.59024060  0.34262377  0.15087874    -0.17400
C426        C  0.57664906  0.36584851  0.14090988    -0.19500
C427        C  0.56771899  0.38646238  0.15888269     0.21100
C428        C  0.57102723  0.38294989  0.18730035    -0.02500
C429        C  0.58466925  0.35939322  0.19739324    -0.05500
C430        C  0.59501652  0.33958462  0.17899781     0.21400
C431        C  0.58920701  0.35638092  0.22571992     0.19600
C432        C  0.57893238  0.37637367  0.24375996    -0.17000
C433        C  0.56567340  0.39987572  0.23373137    -0.19200
C434        C  0.56227723  0.40373033  0.20549151     0.21000
C435        C  0.55224780  0.42872059  0.19501644    -0.32200
C436        C  0.55132730  0.43315264  0.16662540     0.01700
C437        C  0.55748811  0.41133943  0.14879961    -0.23600
C438        C  0.61094263  0.31768193  0.18886021    -0.28100
C439        C  0.61669731  0.31512565  0.21694096     0.07400
C440        C  0.60493960  0.33409473  0.23535482    -0.26800
H441        H  0.59778415  0.32746330  0.13651942     0.12100
H442        H  0.57409691  0.36818455  0.11903525     0.13300
H443        H  0.58198877  0.37430024  0.26558820     0.12300
H444        H  0.55891029  0.41547322  0.24804053     0.11600
H445        H  0.54763797  0.44548136  0.20887608     0.17000
H446        H  0.55649133  0.41456327  0.12691359     0.12900
H447        H  0.61942960  0.30296690  0.17454181     0.15700
H448        H  0.60902866  0.33222621  0.25705186     0.15500
C449        C  0.54312026  0.23126834  0.35191581    -0.17400
C450        C  0.51907927  0.22233940  0.36473724    -0.19500
C451        C  0.51405242  0.19426232  0.36807584     0.21100
C452        C  0.53413959  0.17506979  0.35951121    -0.02500
C453        C  0.55829147  0.18407072  0.34634692    -0.05500
C454        C  0.56250787  0.21227483  0.34204273     0.21400
C455        C  0.57751099  0.16476594  0.33630117     0.19600
C456        C  0.57316004  0.13674900  0.34080302    -0.17000
C457        C  0.54929737  0.12784212  0.35386212    -0.19200
C458        C  0.52936281  0.14679314  0.36260107     0.21000
C459        C  0.50394446  0.13788647  0.37251963    -0.32200
C460        C  0.48293101  0.15678161  0.37880939     0.01700
C461        C  0.48858462  0.18496923  0.37796904    -0.23600
C462        C  0.58538263  0.22092415  0.32693900    -0.28100
C463        C  0.60385488  0.20172135  0.31551204     0.07400
C464        C  0.60011805  0.17369216  0.32096510    -0.26800
H465        H  0.54612195  0.25301927  0.34894223     0.12100
H466        H  0.50400555  0.23739427  0.37126858     0.13300
H467        H  0.58780031  0.12166621  0.33348251     0.12300
H468        H  0.54597645  0.10605120  0.35623676     0.11600
H469        H  0.49965848  0.11612822  0.37329554     0.17000
H470        H  0.47237157  0.19957722  0.38258329     0.12900
H471        H  0.58810210  0.24258624  0.32310437     0.15700
H472        H  0.61438113  0.15874665  0.31267483     0.15500
C473        C  0.33099882  0.23137107  0.33527188    -0.17400
C474        C  0.35367920  0.22322031  0.35111664    -0.19500
C475        C  0.35549580  0.19644073  0.36136325     0.21100
C476        C  0.33376558  0.17796913  0.35620091    -0.02500
C477        C  0.31115348  0.18600725  0.33967642    -0.05500
C478        C  0.30986974  0.21278642  0.32904609     0.21400
C479        C  0.29033796  0.16695764  0.33305105     0.19600
C480        C  0.29178728  0.14040222  0.34385696    -0.17000
C481        C  0.31400966  0.13253392  0.36041144    -0.19200
C482        C  0.33532197  0.15099556  0.36629758     0.21000
C483        C  0.35911036  0.14228453  0.38022256    -0.32200
C484        C  0.38201731  0.15966990  0.38300151     0.01700
C485        C  0.37950411  0.18717668  0.37478195    -0.23600
C486        C  0.28778913  0.22034128  0.31195593    -0.28100
C487        C  0.26722277  0.20130243  0.30473420     0.07400
C488        C  0.26868712  0.17462337  0.31542317    -0.26800
H489        H  0.33031982  0.25204281  0.32732300     0.12100
H490        H  0.37011107  0.23770792  0.35484442     0.13300
H491        H  0.27595953  0.12556102  0.33914251     0.12300
H492        H  0.31493974  0.11170093  0.36792762     0.11600
H493        H  0.36114482  0.12094285  0.38599345     0.17000
H494        H  0.39725421  0.20049381  0.37616944     0.12900
H495        H  0.28695325  0.24092725  0.30375805     0.15700
H496        H  0.25288385  0.15991026  0.31019611     0.15500
C497        C  0.71032395  0.66083312  0.57031718    -0.17400
C498        C  0.70466855  0.67613789  0.59389198    -0.19500
C499        C  0.71601771  0.66853436  0.61920120     0.21100
C500        C  0.73292922  0.64501073  0.62081800    -0.02500
C501        C  0.73898713  0.62975562  0.59688737    -0.05500
C502        C  0.72767391  0.63779411  0.57152719     0.21400
C503        C  0.75724952  0.60719816  0.59815517     0.19600
C504        C  0.76824759  0.59937546  0.62356241    -0.17000
C505        C  0.76165320  0.61402862  0.64737169    -0.19200
C506        C  0.74430481  0.63710512  0.64619979     0.21000
C507        C  0.73843591  0.65260313  0.66984855    -0.32200
C508        C  0.72196669  0.67640933  0.66833463     0.01700
C509        C  0.71092074  0.68419058  0.64282898    -0.23600
C510        C  0.73523775  0.62373887  0.54759040    -0.28100
C511        C  0.75499676  0.60260156  0.54839609     0.07400
C512        C  0.76541107  0.59396432  0.57383353    -0.26800
H513        H  0.70161214  0.66741023  0.55098615     0.12100
H514        H  0.69158283  0.69408974  0.59227737     0.13300
H515        H  0.78226729  0.58211523  0.62498260     0.12300
H516        H  0.77057933  0.60762111  0.66664112     0.11600
H517        H  0.74710245  0.64643970  0.68932182     0.17000
H518        H  0.69798171  0.70228336  0.64141853     0.12900
H519        H  0.72790266  0.63105217  0.52794381     0.15700
H520        H  0.78119521  0.57821745  0.57445683     0.15500
C521        C  0.78103474  0.64344210  0.36157141    -0.17400
C522        C  0.78970264  0.62948146  0.38499646    -0.19500
C523        C  0.77063926  0.62171530  0.40491925     0.21100
C524        C  0.74239029  0.62695265  0.40068362    -0.02500
C525        C  0.73360002  0.64097341  0.37689483    -0.05500
C526        C  0.75312378  0.64977549  0.35758595     0.21400
C527        C  0.70547071  0.64704739  0.37293420     0.19600
C528        C  0.68630850  0.63834052  0.39245380    -0.17000
C529        C  0.69505471  0.62471216  0.41617812    -0.19200
C530        C  0.72312034  0.61934381  0.42077713     0.21000
C531        C  0.73246194  0.60804564  0.44568729    -0.32200
C532        C  0.76082992  0.60469286  0.45071103     0.01700
C533        C  0.77957216  0.61034421  0.42968542    -0.23600
C534        C  0.74458294  0.66535672  0.33498432    -0.28100
C535        C  0.71667814  0.67214473  0.33111734     0.07400
C536        C  0.69715025  0.66235062  0.34995004    -0.26800
H537        H  0.79625533  0.64981608  0.34685822     0.12100
H538        H  0.81146768  0.62548968  0.38791778     0.13300
H539        H  0.66459366  0.64266932  0.38970349     0.12300
H540        H  0.67990824  0.61895778  0.43124400     0.11600
H541        H  0.71792655  0.60390138  0.46185871     0.17000
H542        H  0.80142526  0.60758514  0.43337384     0.12900
H543        H  0.75974576  0.67240600  0.32050945     0.15700
H544        H  0.67556253  0.66732172  0.34718457     0.15500
C545        C  0.39805981  0.77048169  0.49090197    -0.17400
C546        C  0.39876226  0.77088576  0.51962872    -0.19500
C547        C  0.42146335  0.78185844  0.53377518     0.21100
C548        C  0.44407408  0.79143286  0.51865594    -0.02500
C549        C  0.44331222  0.79111870  0.48967900    -0.05500
C550        C  0.41999874  0.78111800  0.47565685     0.21400
C551        C  0.46540779  0.80203341  0.47481393     0.19600
C552        C  0.48852318  0.81213389  0.48881164    -0.17000
C553        C  0.48931046  0.81234488  0.51733908    -0.19200
C554        C  0.46699413  0.80252780  0.53242560     0.21000
C555        C  0.46673317  0.80508498  0.56094017    -0.32200
C556        C  0.44367595  0.79725690  0.57649230     0.01700
C557        C  0.42144661  0.78464659  0.56256791    -0.23600
C558        C  0.41851920  0.78317730  0.44684403    -0.28100
C559        C  0.43980684  0.79578668  0.43178674     0.07400
C560        C  0.46355246  0.80421154  0.44630725    -0.26800
H561        H  0.37996271  0.76254816  0.48060905     0.12100
H562        H  0.38120905  0.76326180  0.53077377     0.13300
H563        H  0.50570317  0.82054183  0.47770379     0.12300
H564        H  0.50713252  0.82093354  0.52762388     0.11600
H565        H  0.48395238  0.81517546  0.57068353     0.17000
H566        H  0.40363219  0.77803640  0.57386176     0.12900
H567        H  0.40023295  0.77599602  0.43646954     0.15700
H568        H  0.48002608  0.81447930  0.43589665     0.15500
C569        C  0.58755051  0.81484631  0.64114394    -0.17400
C570        C  0.56350514  0.82247506  0.62715802    -0.19500
C571        C  0.53856920  0.80903754  0.63218274     0.21100
C572        C  0.53799908  0.78726605  0.65106143    -0.02500
C573        C  0.56210316  0.78006557  0.66571168    -0.05500
C574        C  0.58701128  0.79395362  0.66075797     0.21400
C575        C  0.56108547  0.75946162  0.68579124     0.19600
C576        C  0.53630544  0.74560736  0.69042390    -0.17000
C577        C  0.51256097  0.75242224  0.67561248    -0.19200
C578        C  0.51309775  0.77343002  0.65613179     0.21000
C579        C  0.48888769  0.78181732  0.64272786    -0.32200
C580        C  0.48900531  0.80456290  0.62524155     0.01700
C581        C  0.51394935  0.81786823  0.61976088    -0.23600
C582        C  0.61077778  0.78704148  0.67582422    -0.28100
C583        C  0.60971127  0.76699471  0.69634741     0.07400
C584        C  0.58475403  0.75329976  0.70112970    -0.26800
H585        H  0.60645462  0.82570074  0.63702891     0.12100
H586        H  0.56434249  0.83914782  0.61265678     0.13300
H587        H  0.53521832  0.72965193  0.70571077     0.12300
H588        H  0.49360762  0.74167921  0.67984801     0.11600
H589        H  0.46949537  0.77213280  0.64761858     0.17000
H590        H  0.51390555  0.83587774  0.60688770     0.12900
H591        H  0.62988111  0.79770786  0.67207671     0.15700
H592        H  0.58380925  0.73758041  0.71669303     0.15500
C593        C  0.63237409  0.57958080  0.80750816    -0.17400
C594        C  0.61591269  0.55611092  0.80652493    -0.19500
C595        C  0.58954832  0.55710167  0.79467677     0.21100
C596        C  0.57894292  0.58237181  0.78540560    -0.02500
C597        C  0.59537503  0.60620270  0.78691289    -0.05500
C598        C  0.62261773  0.60455429  0.79701505     0.21400
C599        C  0.58516401  0.63125046  0.77666777     0.19600
C600        C  0.55832480  0.63248499  0.76595321    -0.17000
C601        C  0.54238177  0.60875004  0.76374739    -0.19200
C602        C  0.55279093  0.58344597  0.77268237     0.21000
C603        C  0.53864796  0.55896706  0.76698790    -0.32200
C604        C  0.55013542  0.53359124  0.77435579     0.01700
C605        C  0.57469363  0.53295957  0.78970889    -0.23600
C606        C  0.64001398  0.62747049  0.79510558    -0.28100
C607        C  0.63025997  0.65222053  0.78391174     0.07400
C608        C  0.60246408  0.65421647  0.77583262    -0.26800
H609        H  0.65307751  0.57797986  0.81566987     0.12100
H610        H  0.62432716  0.53688575  0.81385637     0.13300
H611        H  0.55010535  0.65158991  0.75814238     0.12300
H612        H  0.52227719  0.61003099  0.75416710     0.11600
H613        H  0.52006667  0.55950263  0.75468422     0.17000
H614        H  0.58384463  0.51332257  0.79486987     0.12900
H615        H  0.66131342  0.62585886  0.80160646     0.15700
H616        H  0.59481606  0.67315945  0.76707852     0.15500
C617        C  0.36982296  0.74993778  0.66865176    -0.17400
C618        C  0.34612003  0.74209544  0.68264651    -0.19500
C619        C  0.32090052  0.75532330  0.67764314     0.21100
C620        C  0.31941370  0.77631662  0.65795043    -0.02500
C621        C  0.34344585  0.78450413  0.64407107    -0.05500
C622        C  0.36877213  0.77130387  0.64956439     0.21400
C623        C  0.34234097  0.80661064  0.62556551     0.19600
C624        C  0.31700550  0.81951341  0.62025857    -0.17000
C625        C  0.29306782  0.81096199  0.63351560    -0.19200
C626        C  0.29409754  0.78964478  0.65267998     0.21000
C627        C  0.27043413  0.78186758  0.66712181    -0.32200
C628        C  0.27199045  0.76155903  0.68741096     0.01700
C629        C  0.29728917  0.74827936  0.69236933    -0.23600
C630        C  0.39284690  0.78066221  0.63701295    -0.28100
C631        C  0.39213820  0.80369613  0.61988243     0.07400
C632        C  0.36678645  0.81627860  0.61381885    -0.26800
H633        H  0.38911705  0.73969508  0.67321089     0.12100
H634        H  0.34759181  0.72587594  0.69765070     0.13300
H635        H  0.31575603  0.83648718  0.60610544     0.12300
H636        H  0.27385056  0.82143087  0.62921165     0.11600
H637        H  0.25104795  0.79220356  0.66321952     0.17000
H638        H  0.29858810  0.73236010  0.70772657     0.12900
H639        H  0.41251540  0.77151878  0.64236883     0.15700
H640        H  0.36636805  0.83444935  0.60116481     0.15500
C641        C  0.17988942  0.65743731  0.40398413    -0.17400
C642        C  0.17291988  0.64110270  0.42631096    -0.19500
C643        C  0.14854661  0.62580723  0.42602533     0.21100
C644        C  0.13139509  0.62637124  0.40265191    -0.02500
C645        C  0.13872988  0.64246015  0.37985350    -0.05500
C646        C  0.16281415  0.65848389  0.38079990     0.21400
C647        C  0.12162992  0.64306478  0.35643620     0.19600
C648        C  0.09733983  0.62758319  0.35610085    -0.17000
C649        C  0.08967465  0.61228068  0.37899592    -0.19200
C650        C  0.10640593  0.61174992  0.40247564     0.21000
C651        C  0.09799445  0.59805168  0.42624290    -0.32200
C652        C  0.11462359  0.59818863  0.44986037     0.01700
C653        C  0.14031701  0.61120226  0.44924264    -0.23600
C654        C  0.16922746  0.67554756  0.35872431    -0.28100
C655        C  0.15243062  0.67616711  0.33527946     0.07400
C656        C  0.12889850  0.65951391  0.33403362    -0.26800
H657        H  0.19854180  0.66948112  0.40496462     0.12100
H658        H  0.18627206  0.64097450  0.44410461     0.13300
H659        H  0.08395648  0.62777749  0.33834559     0.12300
H660        H  0.07046490  0.60112155  0.37845480     0.11600
H661        H  0.07796384  0.58841988  0.42688265     0.17000
H662        H  0.15280495  0.61193253  0.46765740     0.12900
H663        H  0.18752852  0.68815655  0.35959467     0.15700
H664        H  0.11588041  0.66002509  0.31600549     0.15500
C665        C  0.11315584  0.59037100  0.62054329    -0.17400
C666        C  0.12031194  0.60589132  0.64363777    -0.19500
C667        C  0.13738316  0.62888903  0.64122905     0.21100
C668        C  0.14832055  0.63555768  0.61545394    -0.02500
C669        C  0.14165065  0.61947305  0.59225427    -0.05500
C670        C  0.12325834  0.59730600  0.59466767     0.21400
C671        C  0.15218015  0.62651536  0.56640961     0.19600
C672        C  0.16983100  0.64905147  0.56409642    -0.17000
C673        C  0.17612943  0.66516370  0.58697523    -0.19200
C674        C  0.16512963  0.65886077  0.61264453     0.21000
C675        C  0.17029231  0.67571535  0.63541230    -0.32200
C676        C  0.15934205  0.66939427  0.66120626     0.01700
C677        C  0.14323277  0.64563733  0.66399176    -0.23600
C678        C  0.11380225  0.58381092  0.57096835    -0.28100
C679        C  0.12295005  0.59192728  0.54505755     0.07400
C680        C  0.14326933  0.61221965  0.54307610    -0.26800
H681        H  0.09917758  0.57332511  0.62283469     0.12100
H682        H  0.11186446  0.60034834  0.66326928     0.13300
H683        H  0.17806587  0.65476371  0.54439616     0.12300
H684        H  0.18924089  0.68285865  0.58449131     0.11600
H685        H  0.18305749  0.69369931  0.63307046     0.17000
H686        H  0.13476487  0.64050211  0.68373559     0.12900
H687        H  0.09781953  0.56849355  0.57245422     0.15700
H688        H  0.14984635  0.61890910  0.52303661     0.15500
C689        C  0.54315788  0.36707534  0.73269611    -0.17400
C690        C  0.55773121  0.34246770  0.73520376    -0.19500
C691        C  0.57724729  0.33907431  0.75615733     0.21100
C692        C  0.58087198  0.35984762  0.77588769    -0.02500
C693        C  0.56581792  0.38457207  0.77359444    -0.05500
C694        C  0.54762923  0.38852312  0.75131068     0.21400
C695        C  0.57053580  0.40605925  0.79235953     0.19600
C696        C  0.58917342  0.40210316  0.81402777    -0.17000
C697        C  0.60423983  0.37765030  0.81618787    -0.19200
C698        C  0.60084801  0.35667462  0.79676922     0.21000
C699        C  0.61825718  0.33347660  0.79670249    -0.32200
C700        C  0.61602405  0.31381602  0.77572589     0.01700
C701        C  0.59450813  0.31609959  0.75649712    -0.23600
C702        C  0.53597148  0.41447459  0.74680678    -0.28100
C703        C  0.54213322  0.43640900  0.76436475     0.07400
C704        C  0.55828804  0.43177112  0.78782818    -0.26800
H705        H  0.52915617  0.36969611  0.71560161     0.12100
H706        H  0.55464449  0.32656865  0.72001287     0.13300
H707        H  0.59296000  0.41837430  0.82867251     0.12300
H708        H  0.61928196  0.37556932  0.83245585     0.11600
H709        H  0.63467528  0.33176117  0.81166793     0.17000
H710        H  0.59228149  0.30072182  0.74061148     0.12900
H711        H  0.52397541  0.41823165  0.72845270     0.15700
H712        H  0.56358862  0.44890160  0.80098035     0.15500
C713        C  0.48184442  0.14059356  0.48166677    -0.17400
C714        C  0.48311369  0.14157910  0.51015969    -0.19500
C715        C  0.46276098  0.15544272  0.52508690     0.21100
C716        C  0.44129149  0.16905683  0.51113638    -0.02500
C717        C  0.44009090  0.16818529  0.48216686    -0.05500
C718        C  0.46028717  0.15357494  0.46752969     0.21400
C719        C  0.41824140  0.18101546  0.46795462     0.19600
C720        C  0.39815213  0.19526887  0.48304113    -0.17000
C721        C  0.39927628  0.19601819  0.51177265    -0.19200
C722        C  0.42054291  0.18259609  0.52611886     0.21000
C723        C  0.42084363  0.18141908  0.55503357    -0.32200
C724        C  0.44160113  0.16670245  0.56922405     0.01700
C725        C  0.46292355  0.15463120  0.55371619    -0.23600
C726        C  0.45821714  0.15124282  0.43907986    -0.28100
C727        C  0.43632464  0.16339743  0.42430836     0.07400
C728        C  0.41649702  0.17863744  0.43910930    -0.26800
H729        H  0.49754417  0.12926805  0.47068323     0.12100
H730        H  0.49972232  0.13095768  0.52056047     0.13300
H731        H  0.38124125  0.20538996  0.47264840     0.12300
H732        H  0.38314179  0.20666697  0.52280713     0.11600
H733        H  0.40434842  0.19110692  0.56630052     0.17000
H734        H  0.47883191  0.14275607  0.56376109     0.12900
H735        H  0.47318050  0.13856626  0.42863411     0.15700
H736        H  0.39947152  0.18812701  0.42843389     0.15500
C737        C  0.57944866  0.13850336  0.65396972    -0.17400
C738        C  0.55572943  0.13004918  0.63998568    -0.19500
C739        C  0.53504431  0.14902076  0.63306140     0.21100
C740        C  0.53868469  0.17694167  0.63948717    -0.02500
C741        C  0.56270882  0.18549807  0.65357788    -0.05500
C742        C  0.58297098  0.16610661  0.66125997     0.21400
C743        C  0.56599672  0.21328450  0.66075667     0.19600
C744        C  0.54549417  0.23231545  0.65345424    -0.17000
C745        C  0.52161558  0.22380733  0.63973887    -0.19200
C746        C  0.51781402  0.19612236  0.63289387     0.21000
C747        C  0.49292845  0.18705233  0.62104693    -0.32200
C748        C  0.48851590  0.15899404  0.61623502     0.01700
C749        C  0.51014640  0.14031397  0.62128516    -0.23600
C750        C  0.60600003  0.17450582  0.67668974    -0.28100
C751        C  0.60923163  0.20214192  0.68433403     0.07400
C752        C  0.58931775  0.22145021  0.67576702    -0.26800
H753        H  0.59480093  0.12334703  0.65953442     0.12100
H754        H  0.55325873  0.10851545  0.63517497     0.13300
H755        H  0.54767265  0.25374195  0.65883434     0.12300
H756        H  0.50585674  0.23884011  0.63495196     0.11600
H757        H  0.47621615  0.20146481  0.61771696     0.17000
H758        H  0.50680454  0.11864022  0.61777881     0.12900
H759        H  0.62121236  0.15949696  0.68301692     0.15700
H760        H  0.59143682  0.24277407  0.68162347     0.15500
C761        C  0.73034725  0.49956209  0.54165673    -0.17400
C762        C  0.73127100  0.47081666  0.54203731    -0.19500
C763        C  0.74144544  0.45598837  0.51954728     0.21100
C764        C  0.74992630  0.47036879  0.49616686    -0.02500
C765        C  0.74895197  0.49941484  0.49576393    -0.05500
C766        C  0.73954604  0.51413393  0.51876953     0.21400
C767        C  0.75849711  0.51369389  0.47276385     0.19600
C768        C  0.76806828  0.49892270  0.45001327    -0.17000
C769        C  0.76906566  0.47027945  0.45043351    -0.19200
C770        C  0.76047493  0.45582598  0.47359655     0.21000
C771        C  0.76355966  0.42723557  0.47496637    -0.32200
C772        C  0.75620641  0.41238156  0.49860525     0.01700
C773        C  0.74431981  0.42721030  0.52050608    -0.23600
C774        C  0.74070025  0.54304581  0.51899152    -0.28100
C775        C  0.75180508  0.55764934  0.49673602     0.07400
C776        C  0.75974894  0.54243037  0.47334073    -0.26800
H777        H  0.72301872  0.51042222  0.55956516     0.12100
H778        H  0.72461228  0.46020124  0.56021684     0.13300
H779        H  0.77544447  0.50955193  0.43211285     0.12300
H780        H  0.77716598  0.45944807  0.43284135     0.11600
H781        H  0.77345581  0.41698647  0.45803991     0.17000
H782        H  0.73812463  0.41677137  0.53880026     0.12900
H783        H  0.73412827  0.55399383  0.53707009     0.15700
H784        H  0.76883865  0.55256656  0.45604993     0.15500
C785        C  0.68712437  0.33632841  0.39472729    -0.17400
C786        C  0.69681888  0.34921197  0.41856426    -0.19500
C787        C  0.72514941  0.35300032  0.42286092     0.21100
C788        C  0.74377403  0.34454035  0.40238097    -0.02500
C789        C  0.73401052  0.33139093  0.37841838    -0.05500
C790        C  0.70557747  0.32685927  0.37474242     0.21400
C791        C  0.75284140  0.32182769  0.35866654     0.19600
C792        C  0.78108322  0.32637245  0.36245653    -0.17000
C793        C  0.79072531  0.33935845  0.38610860    -0.19200
C794        C  0.77229735  0.34802810  0.40638320     0.21000
C795        C  0.78205619  0.35862745  0.43122171    -0.32200
C796        C  0.76384723  0.36529255  0.45251955     0.01700
C797        C  0.73531508  0.36356022  0.44781677    -0.23600
C798        C  0.69625841  0.31211511  0.35167121    -0.28100
C799        C  0.71510739  0.30145125  0.33247729     0.07400
C800        C  0.74329880  0.30703469  0.33592176    -0.26800
H801        H  0.66521468  0.33316716  0.39224337     0.12100
H802        H  0.68216461  0.35560947  0.43396013     0.13300
H803        H  0.79578731  0.31928899  0.34743023     0.12300
H804        H  0.81269399  0.34193906  0.38888138     0.11600
H805        H  0.80405353  0.36001597  0.43471813     0.17000
H806        H  0.72120299  0.36837928  0.46424615     0.12900
H807        H  0.67448365  0.30805266  0.34924210     0.15700
H808        H  0.75799288  0.29928811  0.32119345     0.15500
C809        C  0.69985073  0.34350205  0.58204959    -0.17400
C810        C  0.69142393  0.32957040  0.60549072    -0.19500
C811        C  0.71000589  0.32464960  0.62699891     0.21100
C812        C  0.73701629  0.33490777  0.62540264    -0.02500
C813        C  0.74537027  0.34948472  0.60192753    -0.05500
C814        C  0.72691014  0.35310974  0.57982613     0.21400
C815        C  0.77263201  0.35899563  0.59992555     0.19600
C816        C  0.79098013  0.35476152  0.62178903    -0.17000
C817        C  0.78278053  0.34012234  0.64491491    -0.19200
C818        C  0.75601679  0.32957942  0.64669220     0.21000
C819        C  0.74817392  0.31311782  0.66890987    -0.32200
C820        C  0.72140208  0.30228150  0.67032411     0.01700
C821        C  0.70228607  0.30882688  0.64958164    -0.23600
C822        C  0.73636035  0.36444086  0.55522215    -0.28100
C823        C  0.76402414  0.37225058  0.55244763     0.07400
C824        C  0.78162031  0.37072864  0.57537421    -0.26800
H825        H  0.68537161  0.34614416  0.56535089     0.12100
H826        H  0.67057705  0.32190742  0.60643252     0.13300
H827        H  0.81198725  0.36197330  0.62061704     0.12300
H828        H  0.79758581  0.33648936  0.66112330     0.11600
H829        H  0.76292933  0.30855080  0.68494060     0.17000
H830        H  0.68161342  0.30067036  0.65044490     0.12900
H831        H  0.72289013  0.36490570  0.53750101     0.15700
H832        H  0.80308011  0.37623120  0.57318272     0.15500
C833        C  0.31885385  0.13359172  0.62812331    -0.17400
C834        C  0.29611531  0.14106279  0.64401921    -0.19500
C835        C  0.29455158  0.16716563  0.65607230     0.21100
C836        C  0.31569619  0.18625970  0.65115850    -0.02500
C837        C  0.33881475  0.17862360  0.63529637    -0.05500
C838        C  0.34057232  0.15200492  0.62414312     0.21400
C839        C  0.36082896  0.19708845  0.63191149     0.19600
C840        C  0.35879113  0.22352976  0.64313130    -0.17000
C841        C  0.33565969  0.23127895  0.65834278    -0.19200
C842        C  0.31427224  0.21262763  0.66294254     0.21000
C843        C  0.29187159  0.21966887  0.67967474    -0.32200
C844        C  0.27111053  0.20049519  0.68546991     0.01700
C845        C  0.27255885  0.17429550  0.67338662    -0.23600
C846        C  0.36484977  0.14355746  0.61104894    -0.28100
C847        C  0.38789081  0.16091984  0.60992184     0.07400
C848        C  0.38524616  0.18812595  0.61921404    -0.26800
H849        H  0.31986703  0.11306974  0.61968922     0.12100
H850        H  0.28000135  0.12620188  0.64733878     0.13300
H851        H  0.37540105  0.23801889  0.64071575     0.12300
H852        H  0.33485612  0.25165856  0.66715109     0.11600
H853        H  0.29101318  0.23989936  0.68883606     0.17000
H854        H  0.25654891  0.15948876  0.67740673     0.12900
H855        H  0.36691589  0.12246752  0.60431895     0.15700
H856        H  0.40304173  0.20142179  0.61900849     0.15500
C857        C  0.15166427  0.48984717  0.53493389    -0.17400
C858        C  0.15131570  0.46107958  0.53519887    -0.19500
C859        C  0.13820866  0.44630820  0.51416933     0.21100
C860        C  0.12592344  0.46079831  0.49239603    -0.02500
C861        C  0.12657755  0.48981247  0.49194383    -0.05500
C862        C  0.13910076  0.50447774  0.51352088     0.21400
C863        C  0.11387124  0.50411408  0.47031226     0.19600
C864        C  0.10097837  0.48944155  0.44916042    -0.17000
C865        C  0.10002580  0.46084417  0.44979481    -0.19200
C866        C  0.11222990  0.44636687  0.47143628     0.21000
C867        C  0.11027316  0.41776096  0.47271209    -0.32200
C868        C  0.12252358  0.40271814  0.49418552     0.01700
C869        C  0.13672073  0.41742338  0.51477676    -0.23600
C870        C  0.13776338  0.53339386  0.51388301    -0.28100
C871        C  0.12379414  0.54793708  0.49303068     0.07400
C872        C  0.11295856  0.53281887  0.47077829    -0.26800
H873        H  0.16140599  0.50066373  0.55172247     0.12100
H874        H  0.16089681  0.45038982  0.55214250     0.13300
H875        H  0.09105161  0.50012277  0.43239733     0.12300
H876        H  0.08948387  0.45005459  0.43347751     0.11600
H877        H  0.09815607  0.40738500  0.45731650     0.17000
H878        H  0.14649565  0.40675378  0.53142267     0.12900
H879        H  0.14656015  0.54442925  0.53099376     0.15700
H880        H  0.10189544  0.54317806  0.45457232     0.15500
C881        C  0.18194502  0.34943944  0.40249480    -0.17400
C882        C  0.18909049  0.33695020  0.37768492    -0.19500
C883        C  0.16865472  0.32648330  0.36017935     0.21100
C884        C  0.14071980  0.33000904  0.36697522    -0.02500
C885        C  0.13350291  0.34294681  0.39181034    -0.05500
C886        C  0.15423181  0.35186530  0.41012785     0.21400
C887        C  0.10557751  0.34515634  0.39916072     0.19600
C888        C  0.08510647  0.33573790  0.38118157    -0.17000
C889        C  0.09225695  0.32282970  0.35668349    -0.19200
C890        C  0.11999322  0.31927657  0.34970781     0.21000
C891        C  0.12731177  0.30420059  0.32636597    -0.32200
C892        C  0.15512240  0.29962530  0.31999212     0.01700
C893        C  0.17566746  0.31153856  0.33663781    -0.23600
C894        C  0.14692688  0.36071343  0.43656536    -0.28100
C895        C  0.11925068  0.36029502  0.44470381     0.07400
C896        C  0.09866956  0.35438912  0.42533371    -0.26800
H897        H  0.19814327  0.35629608  0.41615208     0.12100
H898        H  0.21065296  0.33460155  0.37265344     0.13300
H899        H  0.06356787  0.33733193  0.38658610     0.12300
H900        H  0.07610709  0.31488473  0.34360113     0.11600
H901        H  0.11133781  0.29536180  0.31363642     0.17000
H902        H  0.19720086  0.30832742  0.33189769     0.12900
H903        H  0.16282475  0.36494164  0.45159712     0.15700
H904        H  0.07734958  0.35395517  0.43173892     0.15500
C905        C  0.09388299  0.32347173  0.63478574    -0.17400
C906        C  0.08655853  0.33768880  0.61100448    -0.19500
C907        C  0.10677783  0.34588592  0.59237658     0.21100
C908        C  0.13473569  0.34073202  0.59834012    -0.02500
C909        C  0.14214606  0.32657617  0.62246365    -0.05500
C910        C  0.12158079  0.31733568  0.64045918     0.21400
C911        C  0.17004033  0.32055818  0.62788106     0.19600
C912        C  0.19030614  0.32931601  0.60958771    -0.17000
C913        C  0.18291843  0.34275822  0.58543269    -0.19200
C914        C  0.15517138  0.34804495  0.57933702     0.21000
C915        C  0.14738352  0.35828240  0.55364205    -0.32200
C916        C  0.11946081  0.36174288  0.54682182     0.01700
C917        C  0.09940668  0.35699786  0.56692042    -0.23600
C918        C  0.12900753  0.30141784  0.66329502    -0.28100
C919        C  0.15679673  0.29482359  0.66851608     0.07400
C920        C  0.17717357  0.30505528  0.65095338    -0.26800
H921        H  0.07782038  0.31670860  0.64841032     0.12100
H922        H  0.06497347  0.34142015  0.60671460     0.13300
H923        H  0.21182922  0.32496577  0.61351857     0.12300
H924        H  0.19888142  0.34831877  0.57113772     0.11600
H925        H  0.16284267  0.36068805  0.53794288     0.17000
H926        H  0.07782130  0.35872581  0.56143793     0.12900
H927        H  0.11315014  0.29388578  0.67676544     0.15700
H928        H  0.19863014  0.30016984  0.65468210     0.15500
C929        C  0.46204295  0.52398770  0.22130837    -0.17400
C930        C  0.43406708  0.52553308  0.22779109    -0.19500
C931        C  0.41531270  0.50680438  0.21647505     0.21100
C932        C  0.42484324  0.48619641  0.19863479    -0.02500
C933        C  0.45317313  0.48450037  0.19225543    -0.05500
C934        C  0.47181584  0.50359914  0.20349010     0.21400
C935        C  0.46276292  0.46389762  0.17443545     0.19600
C936        C  0.44403432  0.44497695  0.16337781    -0.17000
C937        C  0.41597969  0.44666302  0.16967862    -0.19200
C938        C  0.40610410  0.46728070  0.18720198     0.21000
C939        C  0.37793784  0.46910654  0.19373816    -0.32200
C940        C  0.36824438  0.48925031  0.21208189     0.01700
C941        C  0.38730068  0.50806354  0.22313996    -0.23600
C942        C  0.49978148  0.50236376  0.19635561    -0.28100
C943        C  0.50957012  0.48243437  0.17787218     0.07400
C944        C  0.49074509  0.46299276  0.16741679    -0.26800
H945        H  0.47602488  0.53883903  0.23014401     0.12100
H946        H  0.42707301  0.54146618  0.24161664     0.13300
H947        H  0.45106093  0.42895093  0.14966775     0.12300
H948        H  0.40199402  0.43183318  0.16082099     0.11600
H949        H  0.36372820  0.45465077  0.18474855     0.17000
H950        H  0.38057673  0.52307634  0.23795764     0.12900
H951        H  0.51359334  0.51721634  0.20506520     0.15700
H952        H  0.49761308  0.44777784  0.15277003     0.15500
C953        C  0.31055194  0.34635189  0.25533854    -0.17400
C954        C  0.32554129  0.37066165  0.25668855    -0.19500
C955        C  0.32203951  0.39081580  0.23663283     0.21100
C956        C  0.30439239  0.38578119  0.21414985    -0.02500
C957        C  0.28910013  0.36118638  0.21284840    -0.05500
C958        C  0.29178087  0.34180894  0.23393084     0.21400
C959        C  0.26997230  0.35674701  0.19141995     0.19600
C960        C  0.26754683  0.37644965  0.17067737    -0.17000
C961        C  0.28259252  0.40091995  0.17204745    -0.19200
C962        C  0.30042241  0.40616163  0.19415039     0.21000
C963        C  0.31233094  0.43219067  0.19800198    -0.32200
C964        C  0.32772484  0.43803070  0.22179305     0.01700
C965        C  0.33384427  0.41677543  0.24007461    -0.23600
C966        C  0.27467727  0.31886620  0.23413336    -0.28100
C967        C  0.25428225  0.31490718  0.21390219     0.07400
C968        C  0.25270685  0.33347173  0.19195509    -0.26800
H969        H  0.31289673  0.33153008  0.27161717     0.12100
H970        H  0.33902711  0.37416575  0.27402815     0.13300
H971        H  0.25325372  0.37340606  0.15390981     0.12300
H972        H  0.27942304  0.41622932  0.15636402     0.11600
H973        H  0.30703930  0.44872595  0.18418649     0.17000
H974        H  0.34517414  0.42139316  0.25865560     0.12900
H975        H  0.27656061  0.30453316  0.25091504     0.15700
H976        H  0.23720950  0.33064377  0.17622960     0.15500
C977        C  0.26392375  0.56944337  0.18692451    -0.17400
C978        C  0.24834400  0.59359212  0.18797110    -0.19500
C979        C  0.25742557  0.61607751  0.20345131     0.21100
C980        C  0.28310208  0.61464019  0.21702936    -0.02500
C981        C  0.29847047  0.58993685  0.21662353    -0.05500
C982        C  0.28858676  0.56715210  0.20179316     0.21400
C983        C  0.32254045  0.58739446  0.23271620     0.19600
C984        C  0.33234594  0.61036972  0.24705978    -0.17000
C985        C  0.31767952  0.63517664  0.24661952    -0.19200
C986        C  0.29256572  0.63726186  0.23240897     0.21000
C987        C  0.27600040  0.66091821  0.23456867    -0.32200
C988        C  0.24954859  0.66166393  0.22268342     0.01700
C989        C  0.24065919  0.63938624  0.20671909    -0.23600
C990        C  0.30211488  0.54180135  0.20403046    -0.28100
C991        C  0.32410149  0.53832105  0.22247688     0.07400
C992        C  0.33488225  0.56142433  0.23602968    -0.26800
H993        H  0.25601534  0.55211261  0.17549845     0.12100
H994        H  0.22880041  0.59441492  0.17724872     0.13300
H995        H  0.35092455  0.60892270  0.25930370     0.12300
H996        H  0.32535716  0.65236221  0.25842452     0.11600
H997        H  0.28282941  0.67796385  0.24710782     0.17000
H998        H  0.22035459  0.63994467  0.19745077     0.12900
H999        H  0.29327073  0.52390497  0.19422075     0.15700
H1000       H  0.35116326  0.55882114  0.25099773     0.15500
C1001       C  0.43529260  0.52069869  0.76407441    -0.17400
C1002       C  0.40742932  0.51857079  0.77082186    -0.19500
C1003       C  0.39861074  0.49876776  0.78950561     0.21100
C1004       C  0.41809798  0.48069144  0.80121528    -0.02500
C1005       C  0.44629954  0.48291773  0.79448546    -0.05500
C1006       C  0.45488897  0.50309673  0.77591900     0.21400
C1007       C  0.46585250  0.46497245  0.80630624     0.19600
C1008       C  0.45695418  0.44489589  0.82468348    -0.17000
C1009       C  0.42906167  0.44279713  0.83146914    -0.19200
C1010       C  0.40949136  0.46067832  0.81995060     0.21000
C1011       C  0.38167100  0.45952862  0.82757878    -0.32200
C1012       C  0.36217518  0.47833604  0.81700529     0.01700
C1013       C  0.37082906  0.49733676  0.79729986    -0.23600
C1014       C  0.48281853  0.50500865  0.76906776    -0.28100
C1015       C  0.50255423  0.48698641  0.78037203     0.07400
C1016       C  0.49382515  0.46715476  0.79922450    -0.26800
H1017       H  0.44153806  0.53621760  0.74964246     0.12100
H1018       H  0.39279556  0.53261625  0.76160725     0.13300
H1019       H  0.47159187  0.43084960  0.83389029     0.12300
H1020       H  0.42281866  0.42729051  0.84592752     0.11600
H1021       H  0.37552479  0.44495968  0.84300490     0.17000
H1022       H  0.35613414  0.51163231  0.78867357     0.12900
H1023       H  0.48903622  0.51976295  0.75387843     0.15700
H1024       H  0.50869661  0.45309915  0.80797458     0.15500
C1025       C  0.29268023  0.40210611  0.76716354    -0.17400
C1026       C  0.27884171  0.37875546  0.75777097    -0.19500
C1027       C  0.27157722  0.35784038  0.77595712     0.21100
C1028       C  0.27860307  0.36039325  0.80385373    -0.02500
C1029       C  0.29270556  0.38392165  0.81331962    -0.05500
C1030       C  0.29959271  0.40497568  0.79491083     0.21400
C1031       C  0.29914522  0.38673530  0.84133045     0.19600
C1032       C  0.29200190  0.36578846  0.85949839    -0.17000
C1033       C  0.27807858  0.34250615  0.85013392    -0.19200
C1034       C  0.27104161  0.33972372  0.82241296     0.21000
C1035       C  0.25625072  0.31682412  0.81304826    -0.32200
C1036       C  0.24904774  0.31408826  0.78526806     0.01700
C1037       C  0.25706352  0.33464690  0.76681811    -0.23600
C1038       C  0.31210456  0.42902743  0.80475950    -0.28100
C1039       C  0.31726944  0.43256083  0.83286974     0.07400
C1040       C  0.31147564  0.41094503  0.85087564    -0.26800
H1041       H  0.29765796  0.41810971  0.75275373     0.12100
H1042       H  0.27354810  0.37719751  0.73629937     0.13300
H1043       H  0.29678009  0.36761463  0.88107829     0.12300
H1044       H  0.27251619  0.32682199  0.86464671     0.11600
H1045       H  0.25030273  0.30114461  0.82742851     0.17000
H1046       H  0.25149033  0.33290714  0.74541607     0.12900
H1047       H  0.31601328  0.44574947  0.79081656     0.15700
H1048       H  0.31530636  0.41356922  0.87256692     0.15500
C1049       C  0.31170344  0.62832632  0.81612920    -0.17400
C1050       C  0.32586785  0.60496707  0.82532233    -0.19500
C1051       C  0.31612291  0.57862290  0.81907229     0.21100
C1052       C  0.29230445  0.57588554  0.80262485    -0.02500
C1053       C  0.27767132  0.59944525  0.79388417    -0.05500
C1054       C  0.28727268  0.62581795  0.80084042     0.21400
C1055       C  0.25300666  0.59654177  0.77884806     0.19600
C1056       C  0.24369471  0.57025577  0.77183084    -0.17000
C1057       C  0.25834078  0.54699204  0.78013615    -0.19200
C1058       C  0.28241400  0.54958116  0.79584160     0.21000
C1059       C  0.29585921  0.52631541  0.80610410    -0.32200
C1060       C  0.31834706  0.52888572  0.82404593     0.01700
C1061       C  0.32882886  0.55503225  0.83004714    -0.23600
C1062       C  0.27198907  0.64912904  0.79287185    -0.28100
C1063       C  0.24688858  0.64636954  0.77850497     0.07400
C1064       C  0.23778712  0.61989266  0.77144168    -0.26800
H1065       H  0.31951595  0.64836887  0.82153939     0.12100
H1066       H  0.34420627  0.60752952  0.83773000     0.13300
H1067       H  0.22485728  0.56766744  0.76019575     0.12300
H1068       H  0.25044574  0.52692988  0.77484114     0.11600
H1069       H  0.28748613  0.50615469  0.80194434     0.17000
H1070       H  0.34593448  0.55701143  0.84419659     0.12900
H1071       H  0.27934093  0.66933517  0.79834052     0.15700
H1072       H  0.21874344  0.61738030  0.76010363     0.15500
C1073       C  0.80886301  0.30871220  0.11247631    -0.17400
C1074       C  0.78553804  0.30208518  0.12776568    -0.19500
C1075       C  0.78799225  0.28632903  0.15160506     0.21100
C1076       C  0.81414088  0.27641376  0.15959179    -0.02500
C1077       C  0.83758366  0.28242726  0.14369706    -0.05500
C1078       C  0.83502373  0.29923735  0.12041255     0.21400
C1079       C  0.86371703  0.27252261  0.15172704     0.19600
C1080       C  0.86618422  0.25668320  0.17549872    -0.17000
C1081       C  0.84306369  0.25110545  0.19144984    -0.19200
C1082       C  0.81699270  0.26102139  0.18378445     0.21000
C1083       C  0.79381180  0.25603450  0.20003001    -0.32200
C1084       C  0.76758640  0.26580581  0.19226926     0.01700
C1085       C  0.76485436  0.28068146  0.16778588    -0.23600
C1086       C  0.85878377  0.30734097  0.10629730    -0.28100
C1087       C  0.88492410  0.29768221  0.11431244     0.07400
C1088       C  0.88708843  0.27971675  0.13661800    -0.26800
H1089       H  0.80646677  0.32150033  0.09458518     0.12100
H1090       H  0.76564120  0.30979374  0.12125276     0.13300
H1091       H  0.88610349  0.24905874  0.18206174     0.12300
H1092       H  0.84562318  0.23918725  0.20993330     0.11600
H1093       H  0.79617904  0.24424359  0.21863166     0.17000
H1094       H  0.74481032  0.28825404  0.16154466     0.12900
H1095       H  0.85703981  0.32219456  0.09003222     0.15700
H1096       H  0.90729979  0.27312008  0.14348806     0.15500
C1097       C  0.07947248  0.31091755  0.12151209    -0.17400
C1098       C  0.05531999  0.31787628  0.10731056    -0.19500
C1099       C  0.03087820  0.30332324  0.11161535     0.21100
C1100       C  0.03102361  0.28096319  0.12981740    -0.02500
C1101       C  0.05525487  0.27435488  0.14466057    -0.05500
C1102       C  0.07957081  0.28952734  0.14062836     0.21400
C1103       C  0.05484854  0.25322127  0.16422243     0.19600
C1104       C  0.03065497  0.23806490  0.16787426    -0.17000
C1105       C  0.00681017  0.24433691  0.15292472    -0.19200
C1106       C  0.00661097  0.26606899  0.13422872     0.21000
C1107       C  0.98204647  0.27427191  0.12125992    -0.32200
C1108       C  0.98132557  0.29782965  0.10483207     0.01700
C1109       C  0.00596686  0.31174773  0.09940043    -0.23600
C1110       C  0.10328695  0.28356317  0.15629693    -0.28100
C1111       C  0.10270185  0.26326904  0.17665619     0.07400
C1112       C  0.07840497  0.24804383  0.18023794    -0.26800
H1113       H  0.09789881  0.32275822  0.11806974     0.12100
H1114       H  0.05563689  0.33503592  0.09334113     0.13300
H1115       H  0.03002583  0.22162611  0.18267431     0.12300
H1116       H  0.98828048  0.23270102  0.15659672     0.11600
H1117       H  0.96298219  0.26390816  0.12599012     0.17000
H1118       H  0.00534852  0.33016714  0.08710670     0.12900
H1119       H  0.12184631  0.29535902  0.15336438     0.15700
H1120       H  0.07784571  0.23208606  0.19557877     0.15500
C1121       C  0.83679562  0.72859391  0.85034585    -0.17400
C1122       C  0.86002526  0.72021130  0.86521257    -0.19500
C1123       C  0.86367492  0.69258018  0.87224785     0.21100
C1124       C  0.84330173  0.67335891  0.86478594    -0.02500
C1125       C  0.82033844  0.68164448  0.84898315    -0.05500
C1126       C  0.81711152  0.70938767  0.84173366     0.21400
C1127       C  0.80108973  0.66202448  0.83975612     0.19600
C1128       C  0.80448481  0.63449075  0.84718765    -0.17000
C1129       C  0.82689332  0.62638454  0.86332458    -0.19200
C1130       C  0.84654841  0.64559537  0.87192869     0.21000
C1131       C  0.87038287  0.63713379  0.88578093    -0.32200
C1132       C  0.89213572  0.65551767  0.89058665     0.01700
C1133       C  0.88818446  0.68346974  0.88474424    -0.23600
C1134       C  0.79456388  0.71735049  0.82555764    -0.28100
C1135       C  0.77552790  0.69784926  0.81583422     0.07400
C1136       C  0.77899529  0.67019461  0.82299979    -0.26800
H1137       H  0.83458942  0.74999577  0.84497397     0.12100
H1138       H  0.87538213  0.73528097  0.87080195     0.13300
H1139       H  0.78993721  0.61916636  0.84031826     0.12300
H1140       H  0.82928266  0.60492399  0.86840303     0.11600
H1141       H  0.87350113  0.61551560  0.88983649     0.17000
H1142       H  0.90510094  0.69763637  0.88747693     0.12900
H1143       H  0.79220831  0.73870422  0.82000024     0.15700
H1144       H  0.76438814  0.65508999  0.81574233     0.15500
C1145       C  0.05754927  0.62870498  0.85797167    -0.17400
C1146       C  0.07917936  0.63661439  0.84106558    -0.19500
C1147       C  0.08138732  0.66385996  0.83236912     0.21100
C1148       C  0.06183471  0.68344064  0.84118948    -0.02500
C1149       C  0.03979199  0.67538218  0.85805185    -0.05500
C1150       C  0.03758895  0.64783102  0.86623461     0.21400
C1151       C  0.01929724  0.69456128  0.86563994     0.19600
C1152       C  0.02177747  0.72190526  0.85722822    -0.17000
C1153       C  0.04394492  0.73001878  0.84098580    -0.19200
C1154       C  0.06388784  0.71088277  0.83258443     0.21000
C1155       C  0.08565592  0.71862096  0.81550680    -0.32200
C1156       C  0.10513285  0.69916635  0.80643840     0.01700
C1157       C  0.10270259  0.67177606  0.81487135    -0.23600
C1158       C  0.01439074  0.63938932  0.88072964    -0.28100
C1159       C  0.99255737  0.65767490  0.88585650     0.07400
C1160       C  0.99576264  0.68558603  0.87968703    -0.26800
H1161       H  0.05600687  0.60742369  0.86396146     0.12100
H1162       H  0.09401692  0.62134757  0.83455288     0.13300
H1163       H  0.00627956  0.73692417  0.86276806     0.12300
H1164       H  0.04520352  0.75118418  0.83456154     0.11600
H1165       H  0.08720932  0.73974032  0.80896325     0.17000
H1166       H  0.11761930  0.65667520  0.80812006     0.12900
H1167       H  0.01183680  0.61783422  0.88531432     0.15700
H1168       H  0.97880689  0.69965494  0.88318429     0.15500
C1169       C  0.06099955  0.89951981  0.26551114    -0.17400
C1170       C  0.07344689  0.87464433  0.25804507    -0.19500
C1171       C  0.08722409  0.85857063  0.27760701     0.21100
C1172       C  0.08741146  0.86707512  0.30515973    -0.02500
C1173       C  0.07459878  0.89205120  0.31273531    -0.05500
C1174       C  0.06190585  0.90871451  0.29271454     0.21400
C1175       C  0.07551459  0.90086197  0.34016534     0.19600
C1176       C  0.08839371  0.88435376  0.35991708    -0.17000
C1177       C  0.10124868  0.85977957  0.35238722    -0.19200
C1178       C  0.10130282  0.85118101  0.32499888     0.21000
C1179       C  0.11580879  0.82750992  0.31701112    -0.32200
C1180       C  0.11672606  0.81941697  0.28937885     0.01700
C1181       C  0.10165734  0.83472412  0.26993546    -0.23600
C1182       C  0.05165859  0.93479759  0.30002282    -0.28100
C1183       C  0.05401471  0.94434674  0.32710840     0.07400
C1184       C  0.06478953  0.92662372  0.34720254    -0.26800
H1185       H  0.05121332  0.91188067  0.24985921     0.12100
H1186       H  0.07293066  0.86834070  0.23681468     0.13300
H1187       H  0.08921281  0.89083099  0.38109441     0.12300
H1188       H  0.11166201  0.84778674  0.36792032     0.11600
H1189       H  0.12706205  0.81586141  0.33224197     0.17000
H1190       H  0.10197862  0.82870204  0.24861626     0.12900
H1191       H  0.04344056  0.94824767  0.28438090     0.15700
H1192       H  0.06613228  0.93344631  0.36824528     0.15500
C1193       C  0.11086230  0.08232902  0.24981827    -0.17400
C1194       C  0.09428763  0.06017096  0.25705660    -0.19500
C1195       C  0.07496096  0.06281594  0.27812429     0.21100
C1196       C  0.07142392  0.08842844  0.29117757    -0.02500
C1197       C  0.08797797  0.11090047  0.28366333    -0.05500
C1198       C  0.10824145  0.10759893  0.26335447     0.21400
C1199       C  0.08498124  0.13632614  0.29720173     0.19600
C1200       C  0.06511382  0.13917361  0.31775348    -0.17000
C1201       C  0.04917931  0.11674268  0.32563825    -0.19200
C1202       C  0.05255181  0.09115571  0.31285166     0.21000
C1203       C  0.03911483  0.06780476  0.32278222    -0.32200
C1204       C  0.04432085  0.04185351  0.31128410     0.01700
C1205       C  0.06084408  0.03981289  0.28786930    -0.23600
C1206       C  0.12586450  0.12943281  0.25728597    -0.28100
C1207       C  0.12314156  0.15479644  0.27077876     0.07400
C1208       C  0.10230603  0.15823239  0.29038229    -0.26800
H1209       H  0.12613723  0.07952655  0.23399943     0.12100
H1210       H  0.09727530  0.04067238  0.24681672     0.13300
H1211       H  0.06243920  0.15855350  0.32828318     0.12300
H1212       H  0.03472404  0.11923259  0.34224365     0.11600
H1213       H  0.02678219  0.06931462  0.34111871     0.17000
H1214       H  0.06537770  0.01974900  0.27937335     0.12900
H1215       H  0.14156663  0.12677602  0.24183838     0.15700
H1216       H  0.10004742  0.17773591  0.30080321     0.15500
C1217       C  0.82791847  0.83927083  0.75849943    -0.17400
C1218       C  0.84291337  0.86363229  0.76042027    -0.19500
C1219       C  0.83420720  0.88712189  0.74630572     0.21100
C1220       C  0.81099786  0.88557534  0.72886929    -0.02500
C1221       C  0.79574143  0.86096325  0.72703383    -0.05500
C1222       C  0.80387642  0.83797946  0.74250920     0.21400
C1223       C  0.77148336  0.85988001  0.71101074     0.19600
C1224       C  0.76337753  0.88312080  0.69613086    -0.17000
C1225       C  0.77843573  0.90749102  0.69799247    -0.19200
C1226       C  0.80193925  0.90911469  0.71473418     0.21000
C1227       C  0.81525179  0.93429404  0.71922704    -0.32200
C1228       C  0.83690448  0.93639613  0.73831627     0.01700
C1229       C  0.84695972  0.91255107  0.75095979    -0.23600
C1230       C  0.78702849  0.81467987  0.74297955    -0.28100
C1231       C  0.76206255  0.81389726  0.72820674     0.07400
C1232       C  0.75497659  0.83617685  0.71138394    -0.26800
H1233       H  0.83458409  0.82171914  0.77032721     0.12100
H1234       H  0.86076817  0.86436741  0.77373510     0.13300
H1235       H  0.74487406  0.88273026  0.68371434     0.12300
H1236       H  0.77114734  0.92536473  0.68701897     0.11600
H1237       H  0.80697323  0.95278414  0.71004657     0.17000
H1238       H  0.86319177  0.91424121  0.76613285     0.12900
H1239       H  0.79273265  0.79752580  0.75585731     0.15700
H1240       H  0.73573050  0.83582595  0.70011865     0.15500
C1241       C  0.75292897  0.08433689  0.70467180    -0.17400
C1242       C  0.76868017  0.06034007  0.70607597    -0.19500
C1243       C  0.79393769  0.06007269  0.72008256     0.21100
C1244       C  0.80390724  0.08447340  0.73202002    -0.02500
C1245       C  0.78822317  0.10890186  0.73010060    -0.05500
C1246       C  0.76232647  0.10860362  0.71689755     0.21400
C1247       C  0.79785980  0.13326707  0.74239860     0.19600
C1248       C  0.82326675  0.13299142  0.75624112    -0.17000
C1249       C  0.83844566  0.10860717  0.75878401    -0.19200
C1250       C  0.82875276  0.08411907  0.74711648     0.21000
C1251       C  0.84243186  0.05900312  0.75168864    -0.32200
C1252       C  0.83195098  0.03451295  0.74061619     0.01700
C1253       C  0.80841058  0.03544099  0.72389220    -0.23600
C1254       C  0.74580079  0.13225268  0.71698673    -0.28100
C1255       C  0.75496840  0.15648561  0.72954551     0.07400
C1256       C  0.78137910  0.15708680  0.74157591    -0.26800
H1257       H  0.73312896  0.08378586  0.69440505     0.12100
H1258       H  0.76067795  0.04175185  0.69693526     0.13300
H1259       H  0.83102308  0.15148090  0.76582634     0.12300
H1260       H  0.85750058  0.10879031  0.77034846     0.11600
H1261       H  0.86013506  0.05823595  0.76520574     0.17000
H1262       H  0.79987899  0.01645585  0.71607085     0.12900
H1263       H  0.72550117  0.13168972  0.70770660     0.15700
H1264       H  0.78841021  0.17562819  0.75164289     0.15500
C1265       C  0.19106831  0.14322615  0.89561743    -0.17400
C1266       C  0.19910495  0.12841266  0.91880564    -0.19500
C1267       C  0.22621402  0.11870490  0.92154757     0.21100
C1268       C  0.24515896  0.12321590  0.90025545    -0.02500
C1269       C  0.23691977  0.13777623  0.87664382    -0.05500
C1270       C  0.20990490  0.14832657  0.87459387     0.21400
C1271       C  0.25598117  0.14253243  0.85550248     0.19600
C1272       C  0.28301833  0.13265172  0.85814406    -0.17000
C1273       C  0.29134481  0.11882980  0.88180072    -0.19200
C1274       C  0.27267447  0.11426180  0.90306179     0.21000
C1275       C  0.28141961  0.10231503  0.92766829    -0.32200
C1276       C  0.26298807  0.09894092  0.94940818     0.01700
C1277       C  0.23515550  0.10607302  0.94582508    -0.23600
C1278       C  0.20243510  0.16426039  0.85184130    -0.28100
C1279       C  0.22135749  0.16903961  0.83075397     0.07400
C1280       C  0.24788994  0.15767644  0.83242581    -0.26800
H1281       H  0.17019765  0.15102575  0.89430000     0.12100
H1282       H  0.18430205  0.12519659  0.93494171     0.13300
H1283       H  0.29791312  0.13616419  0.84217493     0.12300
H1284       H  0.31253984  0.11209311  0.88364897     0.11600
H1285       H  0.30294644  0.09713758  0.93058751     0.17000
H1286       H  0.22107217  0.10406654  0.96280802     0.12900
H1287       H  0.18189717  0.17293427  0.85044712     0.15700
H1288       H  0.26249253  0.16152554  0.81625137     0.15500
C1289       C  0.26777200  0.11717671  0.14251858    -0.17400
C1290       C  0.27517584  0.10080285  0.12015223    -0.19500
C1291       C  0.26040116  0.10242864  0.09548575     0.21100
C1292       C  0.23718970  0.11984379  0.09373421    -0.02500
C1293       C  0.23018947  0.13692270  0.11604145    -0.05500
C1294       C  0.24574735  0.13578466  0.14045129     0.21400
C1295       C  0.20834668  0.15592154  0.11349178     0.19600
C1296       C  0.19271650  0.15656549  0.08932014    -0.17000
C1297       C  0.19942037  0.13940773  0.06736164    -0.19200
C1298       C  0.22205218  0.12152649  0.06910033     0.21000
C1299       C  0.23123536  0.10717322  0.04595952    -0.32200
C1300       C  0.25607042  0.09233265  0.04680909     0.01700
C1301       C  0.26975147  0.08880959  0.07192617    -0.23600
C1302       C  0.23937372  0.15368670  0.16209465    -0.28100
C1303       C  0.21829914  0.17334904  0.15924838     0.07400
C1304       C  0.20282147  0.17426226  0.13494466    -0.26800
H1305       H  0.27982778  0.11591038  0.16114624     0.12100
H1306       H  0.29294554  0.08743692  0.12190478     0.13300
H1307       H  0.17566873  0.17078778  0.08716455     0.12300
H1308       H  0.18755122  0.14090785  0.04862286     0.11600
H1309       H  0.22099510  0.11034445  0.02647163     0.17000
H1310       H  0.28911621  0.07771843  0.07246533     0.12900
H1311       H  0.25118803  0.15278711  0.18091232     0.15700
H1312       H  0.18615843  0.18897832  0.13294037     0.15500
C1313       C  0.60012448  0.83464637  0.85977693    -0.17400
C1314       C  0.59134749  0.84931579  0.88274994    -0.19500
C1315       C  0.60967577  0.85476957  0.90430613     0.21100
C1316       C  0.63748960  0.84669846  0.90210989    -0.02500
C1317       C  0.64635013  0.83188557  0.87890812    -0.05500
C1318       C  0.62738012  0.82522884  0.85799802     0.21400
C1319       C  0.67385099  0.82269494  0.87722588     0.19600
C1320       C  0.69246235  0.82921944  0.89827725    -0.17000
C1321       C  0.68363444  0.84374511  0.92136407    -0.19200
C1322       C  0.65607654  0.85208084  0.92374330     0.21000
C1323       C  0.64636301  0.86406534  0.94801431    -0.32200
C1324       C  0.61824113  0.87002356  0.95101500     0.01700
C1325       C  0.60028308  0.86650171  0.92870944    -0.23600
C1326       C  0.63572547  0.80850202  0.83615371    -0.28100
C1327       C  0.66287023  0.79850633  0.83477839     0.07400
C1328       C  0.68200582  0.80633396  0.85502160    -0.26800
H1329       H  0.58539790  0.82999278  0.84376767     0.12100
H1330       H  0.56997657  0.85559052  0.88405935     0.13300
H1331       H  0.71367748  0.82243141  0.89723792     0.12300
H1332       H  0.69819574  0.84776190  0.93771880     0.11600
H1333       H  0.66016745  0.86662991  0.96529983     0.17000
H1334       H  0.57860569  0.87125615  0.93105514     0.12900
H1335       H  0.62099319  0.80295260  0.82041755     0.15700
H1336       H  0.70300102  0.79883557  0.85405723     0.15500
C1337       C  0.68253417  0.80396237  0.09162909    -0.17400
C1338       C  0.67652556  0.82084167  0.06924400    -0.19500
C1339       C  0.65499210  0.84009869  0.07056629     0.21100
C1340       C  0.63995647  0.84294260  0.09502331    -0.02500
C1341       C  0.64609110  0.82599647  0.11763437    -0.05500
C1342       C  0.66717828  0.80609034  0.11579375     0.21400
C1343       C  0.63057043  0.82848287  0.14181270     0.19600
C1344       C  0.60929173  0.84792953  0.14330070    -0.17000
C1345       C  0.60290964  0.86433910  0.12078540    -0.19200
C1346       C  0.61787372  0.86178475  0.09647959     0.21000
C1347       C  0.60987956  0.87633741  0.07307783    -0.32200
C1348       C  0.62354950  0.87225142  0.04820501     0.01700
C1349       C  0.64693869  0.85515086  0.04737274    -0.23600
C1350       C  0.67229541  0.78855955  0.13805063    -0.28100
C1351       C  0.65694110  0.79111589  0.16228468     0.07400
C1352       C  0.63630534  0.81128739  0.16401059    -0.26800
H1353       H  0.69892234  0.78895212  0.08988831     0.12100
H1354       H  0.68827492  0.81833578  0.05063511     0.13300
H1355       H  0.59721081  0.85008321  0.16171824     0.12300
H1356       H  0.58588100  0.87866367  0.12221163     0.11600
H1357       H  0.59150486  0.88900694  0.07352627     0.17000
H1358       H  0.65701300  0.85138478  0.02798618     0.12900
H1359       H  0.68848656  0.77327512  0.13671083     0.15700
H1360       H  0.62439653  0.81333334  0.18256808     0.15500
C1361       C  0.88218558  0.30723448  0.00418092    -0.17400
C1362       C  0.88364536  0.31045930  0.97587131    -0.19500
C1363       C  0.90770155  0.30333727  0.96173207     0.21100
C1364       C  0.93002189  0.29164819  0.97604074    -0.02500
C1365       C  0.92861948  0.28854931  0.00476939    -0.05500
C1366       C  0.90485343  0.29698892  0.01887509     0.21400
C1367       C  0.95150997  0.27851682  0.01949826     0.19600
C1368       C  0.97507770  0.27012024  0.00509457    -0.17000
C1369       C  0.97636718  0.27308453  0.97660456    -0.19200
C1370       C  0.95424899  0.28451920  0.96191486     0.21000
C1371       C  0.95637131  0.29029649  0.93378256    -0.32200
C1372       C  0.93490200  0.30383575  0.91952151     0.01700
C1373       C  0.91026907  0.30929599  0.93388225    -0.23600
C1374       C  0.90472177  0.29707142  0.04754079    -0.28100
C1375       C  0.92842828  0.28976682  0.06279830     0.07400
C1376       C  0.95116278  0.27880161  0.04836633    -0.26800
H1377       H  0.86375971  0.31373413  0.01466943     0.12100
H1378       H  0.86620727  0.31935752  0.96513684     0.13300
H1379       H  0.99276417  0.26221345  0.01591466     0.12300
H1380       H  0.99526195  0.26723583  0.96610647     0.11600
H1381       H  0.97553779  0.28530628  0.92341118     0.17000
H1382       H  0.89349086  0.32011851  0.92415870     0.12900
H1383       H  0.88705932  0.30526394  0.05755537     0.15700
H1384       H  0.96924727  0.27220465  0.05935611     0.15500
C1385       C  0.79757668  0.33867118  0.84249638    -0.17400
C1386       C  0.82235620  0.34758988  0.85415452    -0.19500
C1387       C  0.84428932  0.32919509  0.85816834     0.21100
C1388       C  0.84112757  0.30144526  0.85067008    -0.02500
C1389       C  0.81631356  0.29255380  0.83845671    -0.05500
C1390       C  0.79439076  0.31125721  0.83436511     0.21400
C1391       C  0.81374425  0.26512949  0.82965570     0.19600
C1392       C  0.83559014  0.24668191  0.83380806    -0.17000
C1393       C  0.85997688  0.25537731  0.84632377    -0.19200
C1394       C  0.86305310  0.28274108  0.85459982     0.21000
C1395       C  0.88802750  0.29194859  0.86573161    -0.32200
C1396       C  0.89167967  0.31976650  0.87207923     0.01700
C1397       C  0.86963782  0.33821604  0.86863618    -0.23600
C1398       C  0.77003175  0.30237026  0.82150494    -0.28100
C1399       C  0.76784104  0.27530386  0.81197432     0.07400
C1400       C  0.78965522  0.25680415  0.81621643    -0.26800
H1401       H  0.78106784  0.35332899  0.83941182     0.12100
H1402       H  0.82446131  0.36896709  0.85978206     0.13300
H1403       H  0.83390341  0.22556280  0.82715188     0.12300
H1404       H  0.87664019  0.24080413  0.84905890     0.11600
H1405       H  0.90517162  0.27781995  0.86792394     0.17000
H1406       H  0.87253727  0.35971378  0.87342473     0.12900
H1407       H  0.75335972  0.31671165  0.81777190     0.15700
H1408       H  0.78794382  0.23596568  0.80864835     0.15500
C1409       C  0.06457877  0.31794675  0.88145502    -0.17400
C1410       C  0.08800664  0.30829718  0.86784521    -0.19500
C1411       C  0.08564966  0.28868038  0.84691635     0.21100
C1412       C  0.05950798  0.27792329  0.84036861    -0.02500
C1413       C  0.03594970  0.28719125  0.85453021    -0.05500
C1414       C  0.03841577  0.30783321  0.87467988     0.21400
C1415       C  0.00978321  0.27675297  0.84758477     0.19600
C1416       C  0.00744123  0.25684599  0.82695711    -0.17000
C1417       C  0.03070834  0.24792746  0.81272293    -0.19200
C1418       C  0.05673468  0.25862283  0.81900710     0.21000
C1419       C  0.07987921  0.25088278  0.80379761    -0.32200
C1420       C  0.10592318  0.26186260  0.80980642     0.01700
C1421       C  0.10877820  0.28024749  0.83186230    -0.23600
C1422       C  0.01456443  0.31905879  0.88650968    -0.28100
C1423       C  0.98844647  0.30943157  0.87883339     0.07400
C1424       C  0.98626444  0.28757183  0.86020677    -0.26800
H1425       H  0.06686847  0.33369984  0.89692555     0.12100
H1426       H  0.10791322  0.31673601  0.87320376     0.13300
H1427       H  0.98749532  0.24870363  0.82132127     0.12300
H1428       H  0.02827113  0.23300596  0.79646152     0.11600
H1429       H  0.07758906  0.23637189  0.78713208     0.17000
H1430       H  0.12882219  0.28874928  0.83666048     0.12900
H1431       H  0.01614466  0.33628654  0.90043685     0.15700
H1432       H  0.96605280  0.28070028  0.85375231     0.15500
C1433       C  0.90463761  0.69264920  0.98966647    -0.17400
C1434       C  0.90363346  0.69200277  0.01835482    -0.19500
C1435       C  0.92307984  0.67681546  0.03342494     0.21100
C1436       C  0.94418501  0.66284404  0.01931110    -0.02500
C1437       C  0.94524361  0.66356417  0.99036680    -0.05500
C1438       C  0.92514083  0.67816182  0.97538279     0.21400
C1439       C  0.96590379  0.64885094  0.97643451     0.19600
C1440       C  0.98557377  0.63395639  0.99138609    -0.17000
C1441       C  0.98447841  0.63316753  0.01989701    -0.19200
C1442       C  0.96373562  0.64732555  0.03402163     0.21000
C1443       C  0.96167781  0.64523073  0.06249843    -0.32200
C1444       C  0.94019159  0.65822807  0.07700569     0.01700
C1445       C  0.92126010  0.67453164  0.06216293    -0.23600
C1446       C  0.92533130  0.67715802  0.94648783    -0.28100
C1447       C  0.94542168  0.66170045  0.93230104     0.07400
C1448       C  0.96598488  0.64823595  0.94778897    -0.26800
H1449       H  0.88903184  0.70409115  0.97862257     0.12100
H1450       H  0.88728934  0.70296121  0.02872832     0.13300
H1451       H  0.00154838  0.62246391  0.98098924     0.12300
H1452       H  0.99962726  0.62108878  0.03089091     0.11600
H1453       H  0.97607790  0.63203636  0.07315933     0.17000
H1454       H  0.90467043  0.68477604  0.07275754     0.12900
H1455       H  0.90939769  0.68777218  0.93528313     0.15700
H1456       H  0.98129446  0.63573656  0.93759259     0.15500
C1457       C  0.81298271  0.63307367  0.12906326    -0.17400
C1458       C  0.79010245  0.64139717  0.14429494    -0.19500
C1459       C  0.79029257  0.66643729  0.15848434     0.21100
C1460       C  0.81348203  0.68363969  0.15663241    -0.02500
C1461       C  0.83643466  0.67541863  0.14086796    -0.05500
C1462       C  0.83637846  0.64973991  0.12753563     0.21400
C1463       C  0.85999432  0.69219079  0.13970976     0.19600
C1464       C  0.85990328  0.71753324  0.15338155    -0.17000
C1465       C  0.83720122  0.72564938  0.16903471    -0.19200
C1466       C  0.81412991  0.70860455  0.17126669     0.21000
C1467       C  0.79190122  0.71585176  0.18817243    -0.32200
C1468       C  0.76873107  0.69879389  0.19009105     0.01700
C1469       C  0.76790819  0.67433425  0.17484841    -0.23600
C1470       C  0.86041833  0.64025768  0.11473637    -0.28100
C1471       C  0.88472512  0.65578943  0.11561593     0.07400
C1472       C  0.88391651  0.68238856  0.12677744    -0.26800
H1473       H  0.81262482  0.61326397  0.11900582     0.12100
H1474       H  0.77249671  0.62795661  0.14547508     0.13300
H1475       H  0.87775017  0.73072108  0.15266793     0.12300
H1476       H  0.83793618  0.74502497  0.17987239     0.11600
H1477       H  0.79241132  0.73494953  0.19954046     0.17000
H1478       H  0.75007258  0.66119114  0.17621678     0.12900
H1479       H  0.86113168  0.61955951  0.10663789     0.15700
H1480       H  0.90274078  0.69416478  0.12810839     0.15500
C1481       C  0.02142325  0.71604643  0.13358328    -0.17400
C1482       C  0.04476412  0.72644517  0.14697460    -0.19500
C1483       C  0.06249093  0.70896667  0.16162692     0.21100
C1484       C  0.05713456  0.68058925  0.16188318    -0.02500
C1485       C  0.03375632  0.67007198  0.14813349    -0.05500
C1486       C  0.01542660  0.68794295  0.13441780     0.21400
C1487       C  0.02815799  0.64178839  0.14907979     0.19600
C1488       C  0.04615853  0.62417302  0.16312183    -0.17000
C1489       C  0.06914069  0.63458295  0.17684837    -0.19200
C1490       C  0.07462671  0.66276837  0.17661513     0.21000
C1491       C  0.09693789  0.67341749  0.19142805    -0.32200
C1492       C  0.10216583  0.70176876  0.19197218     0.01700
C1493       C  0.08502434  0.71938814  0.17658383    -0.23600
C1494       C  0.99073272  0.67759734  0.12323590    -0.28100
C1495       C  0.98425058  0.64963824  0.12577142     0.07400
C1496       C  0.00386906  0.63174787  0.13735041    -0.26800
H1497       H  0.00771670  0.73010993  0.12307186     0.12100
H1498       H  0.04860470  0.74826387  0.14638263     0.13300
H1499       H  0.04206744  0.60239832  0.16409896     0.12300
H1500       H  0.08238209  0.62062586  0.18802769     0.11600
H1501       H  0.10992062  0.65955429  0.20302824     0.17000
H1502       H  0.08883377  0.74123567  0.17669349     0.12900
H1503       H  0.97574697  0.69156786  0.11444720     0.15700
H1504       H  0.99935814  0.61009219  0.13891263     0.15500
C1505       C  0.97203132  0.01996116  0.72883518    -0.17400
C1506       C  0.94461518  0.02192084  0.73719255    -0.19500
C1507       C  0.92451802  0.00464575  0.72586487     0.21100
C1508       C  0.93204396  0.98527812  0.70582600    -0.02500
C1509       C  0.95979006  0.98334888  0.69731182    -0.05500
C1510       C  0.97985634  0.00075441  0.70891331     0.21400
C1511       C  0.96742033  0.96407620  0.67720457     0.19600
C1512       C  0.94726068  0.94683667  0.66585629    -0.17000
C1513       C  0.91983073  0.94853895  0.67450811    -0.19200
C1514       C  0.91195507  0.96764394  0.69456182     0.21000
C1515       C  0.88458712  0.96900517  0.70403056    -0.32200
C1516       C  0.87703636  0.98785219  0.72458913     0.01700
C1517       C  0.89722202  0.00591688  0.73488761    -0.23600
C1518       C  0.00728603  0.99904760  0.70010282    -0.28100
C1519       C  0.01506654  0.98053602  0.67940494     0.07400
C1520       C  0.99491248  0.96280061  0.66840754    -0.26800
H1521       H  0.98711741  0.03354570  0.73791047     0.12100
H1522       H  0.93914931  0.03687807  0.75268817     0.13300
H1523       H  0.95272595  0.93195145  0.65029312     0.12300
H1524       H  0.90478150  0.93482310  0.66557164     0.11600
H1525       H  0.86935449  0.95501786  0.69590045     0.17000
H1526       H  0.89204749  0.02009424  0.75114987     0.12900
H1527       H  0.02238737  0.01251236  0.70913131     0.15700
H1528       H  0.00039479  0.94872677  0.65212363     0.15500
C1529       C  0.09949898  0.84335184  0.64441260    -0.17400
C1530       C  0.08596556  0.86691768  0.63510348    -0.19500
C1531       C  0.07556844  0.88626481  0.65370576     0.21100
C1532       C  0.07761437  0.88118376  0.68197865    -0.02500
C1533       C  0.09116525  0.85721961  0.69140848    -0.05500
C1534       C  0.10276359  0.83861584  0.67250528     0.21400
C1535       C  0.09415373  0.85250558  0.71968418     0.19600
C1536       C  0.08255801  0.87128806  0.73824429    -0.17000
C1537       C  0.06942602  0.89518309  0.72890451    -0.19200
C1538       C  0.06741046  0.90068666  0.70080874     0.21000
C1539       C  0.05703804  0.92598769  0.69125718    -0.32200
C1540       C  0.05690491  0.93198879  0.66310021     0.01700
C1541       C  0.06477784  0.91131872  0.64450364    -0.23600
C1542       C  0.11827063  0.81613438  0.68191006    -0.28100
C1543       C  0.12245107  0.81178064  0.71005893     0.07400
C1544       C  0.10954556  0.82970506  0.72883981    -0.26800
H1545       H  0.10804523  0.82918295  0.62961496     0.12100
H1546       H  0.08446289  0.87045769  0.61330436     0.13300
H1547       H  0.08438804  0.86792717  0.76004021     0.12300
H1548       H  0.06153323  0.90974413  0.74371309     0.11600
H1549       H  0.05117713  0.94170701  0.70582342     0.17000
H1550       H  0.06432702  0.91547422  0.62277171     0.12900
H1551       H  0.12763708  0.80236961  0.66721537     0.15700
H1552       H  0.11231029  0.82653137  0.75058329     0.15500
C1553       C  0.10190521  0.05316895  0.72882317    -0.17400
C1554       C  0.11657254  0.07625267  0.73744751    -0.19500
C1555       C  0.11409620  0.10110940  0.72331728     0.21100
C1556       C  0.09581418  0.10302023  0.70089564    -0.02500
C1557       C  0.08123430  0.07957208  0.69195668    -0.05500
C1558       C  0.08467051  0.05445596  0.70577720     0.21400
C1559       C  0.06438511  0.08091272  0.66840486     0.19600
C1560       C  0.06109993  0.10609018  0.65493530    -0.22600
C1561       C  0.07504577  0.12947950  0.66417050    -0.19200
C1562       C  0.09289792  0.12805059  0.68679444     0.21000
C1563       C  0.10849204  0.15091831  0.69507099    -0.32200
C1564       C  0.12770658  0.14875047  0.71661391     0.01700
C1565       C  0.13011636  0.12383770  0.73079463    -0.23600
C1566       C  0.07223848  0.03069076  0.69537101    -0.28100
C1567       C  0.05686004  0.03145846  0.67099426     0.07400
C1568       C  0.05248179  0.05676178  0.65791985    -0.26800
H1569       H  0.10470293  0.03406649  0.73970233     0.12100
H1570       H  0.13030110  0.07450324  0.75486727     0.13300
H1571       H  0.04815917  0.10758052  0.63690506     0.12300
H1572       H  0.07245345  0.14851540  0.65314196     0.11600
H1573       H  0.10645830  0.17007605  0.68412262     0.17000
H1574       H  0.14451574  0.12216434  0.74770651     0.12900
H1575       H  0.07634823  0.01111999  0.70500728     0.15700
H1576       H  0.04122645  0.05730066  0.63874641     0.15500
C1577       C  0.94810398  0.94186915  0.33578577    -0.17400
C1578       C  0.91939324  0.94143382  0.33636598    -0.19500
C1579       C  0.90401602  0.96200463  0.32332156     0.21100
C1580       C  0.91763517  0.98275766  0.30883303    -0.02500
C1581       C  0.94677291  0.98315350  0.30818711    -0.05500
C1582       C  0.96196279  0.96288214  0.32215328     0.21400
C1583       C  0.96065329  0.00445839  0.29470656     0.19600
C1584       C  0.94511997  0.02467915  0.28114081    -0.17000
C1585       C  0.91621923  0.02434154  0.28186066    -0.19200
C1586       C  0.90221494  0.00371667  0.29606715     0.21000
C1587       C  0.87324752  0.00421346  0.29866064    -0.32200
C1588       C  0.85949857  0.98402063  0.31398709     0.01700
C1589       C  0.87533213  0.96274266  0.32567563    -0.23600
C1590       C  0.99066438  0.96474588  0.32376441    -0.28100
C1591       C  0.00497729  0.98675848  0.31183534     0.07400
C1592       C  0.98965324  0.00593281  0.29627938    -0.26800
H1593       H  0.95948868  0.92612000  0.34662091     0.12100
H1594       H  0.90921049  0.92533211  0.34758673     0.13300
H1595       H  0.95532347  0.04120430  0.27059165     0.12300
H1596       H  0.90483417  0.04058758  0.27180583     0.11600
H1597       H  0.86164355  0.02072934  0.28945797     0.17000
H1598       H  0.86553381  0.94751885  0.33824923     0.12900
H1599       H  0.00147755  0.94999289  0.33631184     0.15700
H1600       H  0.00002959  0.02279247  0.28655983     0.15500
C1601       C  0.81198438  0.86492597  0.33153633    -0.17400
C1602       C  0.79848235  0.84087689  0.32361110    -0.19500
C1603       C  0.77791524  0.84152214  0.30338341     0.21100
C1604       C  0.77146605  0.86657335  0.29045062    -0.02500
C1605       C  0.78558175  0.89074136  0.29798008    -0.05500
C1606       C  0.80548585  0.88999802  0.31907532     0.21400
C1607       C  0.77890976  0.91583528  0.28525635     0.19600
C1608       C  0.75841355  0.91649258  0.26495495    -0.17000
C1609       C  0.74420079  0.89263650  0.25775373    -0.19200
C1610       C  0.75038992  0.86764591  0.27055761     0.21000
C1611       C  0.73556808  0.84383016  0.26415287    -0.32200
C1612       C  0.74177745  0.81874915  0.27700189     0.01700
C1613       C  0.76331042  0.81770077  0.29629180    -0.23600
C1614       C  0.81738494  0.91452620  0.32836500    -0.28100
C1615       C  0.81029347  0.93963378  0.31624355     0.07400
C1616       C  0.79173534  0.94003548  0.29413353    -0.26800
H1617       H  0.82724700  0.86397585  0.34770953     0.12100
H1618       H  0.80371929  0.82185036  0.33374710     0.13300
H1619       H  0.75292938  0.93559703  0.25507718     0.12300
H1620       H  0.72812248  0.89380034  0.24237463     0.11600
H1621       H  0.71921106  0.84479807  0.24903101     0.17000
H1622       H  0.76818310  0.79851543  0.30632990     0.12900
H1623       H  0.83086030  0.91428124  0.34606141     0.15700
H1624       H  0.78554437  0.95954050  0.28544122     0.15500
C1625       C  0.78371789  0.06529088  0.26010266    -0.17400
C1626       C  0.76851317  0.08846788  0.25246416    -0.19500
C1627       C  0.76531590  0.11053134  0.27066329     0.21100
C1628       C  0.77850029  0.10971958  0.29641176    -0.02500
C1629       C  0.79370983  0.08623377  0.30419291    -0.05500
C1630       C  0.79589367  0.06372360  0.28611564     0.21400
C1631       C  0.80541525  0.08469255  0.33059107     0.19600
C1632       C  0.80287987  0.10709283  0.34849198    -0.17000
C1633       C  0.78824068  0.13055705  0.34060628    -0.19200
C1634       C  0.77560344  0.13191242  0.31479534     0.21000
C1635       C  0.75948720  0.15469913  0.30733915    -0.32200
C1636       C  0.74541475  0.15506765  0.28219407     0.01700
C1637       C  0.74859808  0.13305444  0.26386961    -0.23600
C1638       C  0.80844596  0.03936398  0.29505743    -0.28100
C1639       C  0.81829731  0.03702742  0.32201039     0.07400
C1640       C  0.81775686  0.06013070  0.33926809    -0.26800
H1641       H  0.78523334  0.04822556  0.24595899     0.12100
H1642       H  0.75873829  0.08887815  0.23252225     0.13300
H1643       H  0.81169919  0.10622899  0.36884235     0.12300
H1644       H  0.78621653  0.14736916  0.35496835     0.11600
H1645       H  0.75705078  0.17168815  0.32145216     0.17000
H1646       H  0.73804952  0.13352857  0.24429574     0.12900
H1647       H  0.80811689  0.02139742  0.28195471     0.15700
H1648       H  0.82481570  0.05818607  0.36021842     0.15500
C1649       C  0.64481907  0.97603576  0.04365486    -0.17400
C1650       C  0.64382645  0.00479364  0.04338164    -0.19500
C1651       C  0.63676545  0.01897732  0.01937839     0.21100
C1652       C  0.63202382  0.00395749  0.99518272    -0.02500
C1653       C  0.63297793  0.97493285  0.99547446    -0.05500
C1654       C  0.63874884  0.96083784  0.01994156     0.21400
C1655       C  0.62672531  0.96006768  0.97156902     0.19600
C1656       C  0.62085319  0.97416785  0.94727441    -0.17000
C1657       C  0.61998845  0.00277711  0.94696233    -0.19200
C1658       C  0.62490940  0.01783071  0.97096568     0.21000
C1659       C  0.62103860  0.04631716  0.97140596    -0.32200
C1660       C  0.62338866  0.06164245  0.99591296     0.01700
C1661       C  0.63278624  0.04765744  0.01953672    -0.23600
C1662       C  0.63685557  0.93197478  0.02061637    -0.28100
C1663       C  0.62853799  0.91684235  0.99725598     0.07400
C1664       C  0.62474830  0.93146348  0.97257396    -0.26800
H1665       H  0.64947359  0.96566932  0.06267144     0.12100
H1666       H  0.64771809  0.01590581  0.06219001     0.13300
H1667       H  0.61607339  0.96303980  0.92864348     0.12300
H1668       H  0.61455395  0.01310169  0.92813063     0.11600
H1669       H  0.61398430  0.05593759  0.95281127     0.17000
H1670       H  0.63552640  0.05860436  0.03853464     0.12900
H1671       H  0.64040873  0.92166138  0.03981391     0.15700
H1672       H  0.61812672  0.92113060  0.95416037     0.15500
C1673       C  0.67733742  0.16540213  0.90326435    -0.17400
C1674       C  0.66926687  0.15078937  0.92637433    -0.19500
C1675       C  0.64520975  0.13503247  0.92587918     0.21100
C1676       C  0.62947323  0.13341868  0.90158396    -0.02500
C1677       C  0.63794371  0.14777314  0.87803018    -0.05500
C1678       C  0.66170316  0.16424359  0.87911555     0.21400
C1679       C  0.62229923  0.14622212  0.85366881     0.19600
C1680       C  0.59831107  0.13026731  0.85316315    -0.17000
C1681       C  0.58951273  0.11663841  0.87672192    -0.19200
C1682       C  0.60479518  0.11830168  0.90112066     0.21000
C1683       C  0.59531019  0.10616946  0.92535494    -0.32200
C1684       C  0.61063242  0.10832329  0.94976822     0.01700
C1685       C  0.63597571  0.12197320  0.94962158    -0.23600
C1686       C  0.66921095  0.17965119  0.85622310    -0.28100
C1687       C  0.65380937  0.17832545  0.83188453     0.07400
C1688       C  0.63064898  0.16111461  0.83052659    -0.26800
H1689       H  0.69571013  0.17785214  0.90437184     0.12100
H1690       H  0.68152397  0.15232976  0.94485876     0.13300
H1691       H  0.58601251  0.12879484  0.83469151     0.12300
H1692       H  0.57058275  0.10505473  0.87594121     0.11600
H1693       H  0.57559481  0.09591609  0.92555352     0.17000
H1694       H  0.64747023  0.12417083  0.96854442     0.12900
H1695       H  0.68724437  0.19262126  0.85725139     0.15700
H1696       H  0.61866843  0.16007311  0.81181513     0.15500
C1697       C  0.60622215  0.11977742  0.14506787    -0.17400
C1698       C  0.59827853  0.10581687  0.12123053    -0.19500
C1699       C  0.61053343  0.11185410  0.09605202     0.21100
C1700       C  0.63140429  0.13183550  0.09501984    -0.02500
C1701       C  0.63895394  0.14640096  0.11897999    -0.05500
C1702       C  0.62627305  0.14037948  0.14413942     0.21400
C1703       C  0.65868590  0.16743797  0.11759457     0.19600
C1704       C  0.67134348  0.17313391  0.09253764    -0.17000
C1705       C  0.66416676  0.15847863  0.06892934    -0.19200
C1706       C  0.64400462  0.13801370  0.06986291     0.21000
C1707       C  0.63524247  0.12464391  0.04587369    -0.32200
C1708       C  0.61335528  0.10592908  0.04650807     0.01700
C1709       C  0.60141016  0.09926604  0.07172221    -0.23600
C1710       C  0.63347092  0.15539986  0.16776758    -0.28100
C1711       C  0.65258157  0.17695964  0.16638259     0.07400
C1712       C  0.66513722  0.18269241  0.14115929    -0.26800
H1713       H  0.59626376  0.11483230  0.16414895     0.12100
H1714       H  0.58227155  0.09050758  0.12244412     0.13300
H1715       H  0.68662143  0.18915263  0.09112878     0.12300
H1716       H  0.67397708  0.16357267  0.04979514     0.11600
H1717       H  0.64392453  0.13039387  0.02636285     0.17000
H1718       H  0.58415480  0.08529244  0.07214724     0.12900
H1719       H  0.62367313  0.15081956  0.18703231     0.15700
H1720       H  0.68013438  0.19900568  0.13988813     0.15500
C1721       C  0.21528373  0.99679170  0.03052203    -0.17400
C1722       C  0.21345092  0.96812917  0.03116062    -0.19500
C1723       C  0.22907222  0.95186330  0.01320091     0.21100
C1724       C  0.24618505  0.96470360  0.99398391    -0.02500
C1725       C  0.24777256  0.99366423  0.99310893    -0.05500
C1726       C  0.23259004  0.00980999  0.01175181     0.21400
C1727       C  0.26519095  0.00638754  0.97410696     0.19600
C1728       C  0.28052922  0.99018908  0.95589013    -0.17000
C1729       C  0.27913906  0.96158267  0.95692742    -0.19200
C1730       C  0.26223786  0.94862243  0.97606599     0.21000
C1731       C  0.26168676  0.91990624  0.97802621    -0.32200
C1732       C  0.24495140  0.90670703  0.99735687     0.01700
C1733       C  0.22827537  0.92304368  0.01448429    -0.23600
C1734       C  0.23573069  0.03853345  0.01192525    -0.28100
C1735       C  0.25391619  0.05138639  0.99369689     0.07400
C1736       C  0.26791442  0.03499334  0.97435005    -0.26800
H1737       H  0.20341690  0.00877542  0.04499076     0.12100
H1738       H  0.20016291  0.95865693  0.04606722     0.13300
H1739       H  0.29402652  0.99964294  0.94116379     0.12300
H1740       H  0.29155558  0.94957194  0.94293355     0.11600
H1741       H  0.27510734  0.90786084  0.96506060     0.17000
H1742       H  0.21469692  0.91351849  0.02892807     0.12900
H1743       H  0.22466667  0.05074701  0.02677234     0.15700
H1744       H  0.28236880  0.04433113  0.96048271     0.15500
C1745       C  0.18513757  0.84169316  0.87681930    -0.17400
C1746       C  0.19127446  0.85517656  0.90139572    -0.19500
C1747       C  0.21807723  0.85456561  0.91217540     0.21100
C1748       C  0.23918943  0.84137808  0.89723691    -0.02500
C1749       C  0.23292986  0.82753187  0.87252206    -0.05500
C1750       C  0.20564960  0.82720968  0.86263208     0.21400
C1751       C  0.25365497  0.81281558  0.85853228     0.19600
C1752       C  0.28073110  0.81323485  0.86867451    -0.17000
C1753       C  0.28691518  0.82687247  0.89316226    -0.19200
C1754       C  0.26615280  0.84036052  0.90793777     0.21000
C1755       C  0.27133584  0.85067906  0.93426156    -0.32200
C1756       C  0.24980519  0.86125526  0.95036399     0.01700
C1757       C  0.22361238  0.86473080  0.93860693    -0.23600
C1758       C  0.19907383  0.81149123  0.83941991    -0.28100
C1759       C  0.21928539  0.79563374  0.82601234     0.07400
C1760       C  0.24674097  0.79703992  0.83534812    -0.26800
H1761       H  0.16410327  0.84181596  0.86938936     0.12100
H1762       H  0.17482206  0.86525017  0.91246732     0.13300
H1763       H  0.29695845  0.80227376  0.85814419     0.12300
H1764       H  0.30776233  0.82597450  0.90107170     0.11600
H1765       H  0.29145401  0.84762612  0.94347135     0.17000
H1766       H  0.20687943  0.87233986  0.95112759     0.12900
H1767       H  0.17790767  0.81089889  0.83238336     0.15700
H1768       H  0.26257230  0.78521521  0.82513551     0.15500
C1769       C  0.17311089  0.84381215  0.11948252    -0.17400
C1770       C  0.17938447  0.85661210  0.09476689    -0.19500
C1771       C  0.20685780  0.86100591  0.08735172     0.21100
C1772       C  0.22813940  0.85409113  0.10585058    -0.02500
C1773       C  0.22183419  0.84066130  0.13059209    -0.05500
C1774       C  0.19422626  0.83488658  0.13704522     0.21400
C1775       C  0.24322996  0.83139326  0.14790958     0.19600
C1776       C  0.27062422  0.83729970  0.14124247    -0.17000
C1777       C  0.27686268  0.85071037  0.11681018    -0.19200
C1778       C  0.25582490  0.85835392  0.09855839     0.21000
C1779       C  0.26205953  0.86744925  0.07209761    -0.32200
C1780       C  0.24109351  0.87089622  0.05243512     0.01700
C1781       C  0.21349219  0.86935974  0.06075561    -0.23600
C1782       C  0.18825982  0.81901106  0.16010883    -0.28100
C1783       C  0.20953915  0.80814772  0.17657090     0.07400
C1784       C  0.23696386  0.81520618  0.17077124    -0.26800
H1785       H  0.15178509  0.83977685  0.12426157     0.12100
H1786       H  0.16277081  0.86199403  0.08091725     0.13300
H1787       H  0.28730638  0.83062045  0.15441186     0.12300
H1788       H  0.29824067  0.85390895  0.11158871     0.11600
H1789       H  0.28335136  0.86790189  0.06560035     0.17000
H1790       H  0.19726442  0.87100717  0.04555526     0.12900
H1791       H  0.16702937  0.81402964  0.16443151     0.15700
H1792       H  0.25350281  0.80737216  0.18349103     0.15500
loop_ 
_geom_bond_atom_site_label_1 
_geom_bond_atom_site_label_2 
_geom_bond_distance 
_geom_bond_site_symmetry_2 
_ccdc_geom_bond_type 
N1            C5   1.369   1_554  A
N1            C2   1.369       .  A
N1         C1732   1.455   1_554  S
C2            C3   1.380       .  A
C2         C1780   1.479       .  S
C3            C4   1.361   1_554  A
C3            H6   1.083       .  S
C4            C5   1.380       .  A
C4            H7   1.083       .  S
C5         C1756   1.482       .  S
N8           C12   1.367       .  A
N8            C9   1.367   1_556  A
N8         C1660   1.465       .  S
C9           C10   1.382       .  A
C9         C1708   1.484       .  S
C10          C11   1.368   1_554  A
C10          H13   1.083       .  S
C11          C12   1.379       .  A
C11          H14   1.083       .  S
C12        C1684   1.485       .  S
N15          C19   1.363       .  A
N15          C16   1.364   1_565  A
N15        C1588   1.456       .  S
C16          C17   1.384       .  A
C16        C1639   1.481       .  S
C17          C18   1.366   1_545  A
C17          H20   1.083       .  S
C18          C19   1.377       .  A
C18          H21   1.083       .  S
C19        C1615   1.477       .  S
N22          C26   1.364       .  A
N22          C23   1.366   1_565  A
N22        C1519   1.452       .  S
C23          C24   1.381   1_545  A
C23        C1567   1.484       .  S
C24          C25   1.369       .  A
C24          H27   1.083   1_565  S
C25          C26   1.385       .  A
C25          H28   1.082       .  S
C26        C1540   1.496       .  S
N29          C33   1.367       .  A
N29          C30   1.368       .  A
N29        C1444   1.458       .  S
C30          C31   1.382       .  A
C30        C1495   1.492       .  S
C31          C32   1.362       .  A
C31          H34   1.082       .  S
C32          C33   1.382       .  A
C32          H35   1.083       .  S
C33        C1471   1.483       .  S
N36          C40   1.364       .  A
N36          C37   1.364       .  A
N36        C1372   1.463       .  S
C37          C38   1.384       .  A
C37        C1423   1.477       .  S
C38          C39   1.368       .  A
C38          H41   1.083       .  S
C39          C40   1.379       .  A
C39          H42   1.082       .  S
C40        C1396   1.482       .  S
N43          C47   1.366   1_556  A
N43          C44   1.366       .  A
N43        C1663   1.466       .  S
C44          C45   1.379       .  A
C44        C1324   1.480       .  S
C45          C46   1.363   1_556  A
C45          H48   1.083       .  S
C46          C47   1.382       .  A
C46          H49   1.083       .  S
C47        C1348   1.478       .  S
N50          C54   1.362   1_556  A
N50          C51   1.362       .  A
N50        C1735   1.453       .  S
C51          C52   1.379       .  A
C51        C1276   1.480       .  S
C52          C53   1.367   1_556  A
C52          H55   1.083       .  S
C53          C54   1.384       .  A
C53          H56   1.083       .  S
C54        C1300   1.477       .  S
N57          C61   1.363       .  A
N57          C58   1.364   1_565  A
N57        C1516   1.452       .  S
C58          C59   1.379   1_545  A
C58        C1252   1.480       .  S
C59          C60   1.368       .  A
C59          H62   1.083   1_565  S
C60          C61   1.381       .  A
C60          H63   1.083       .  S
C61        C1228   1.482       .  S
N64          C68   1.369       .  A
N64          C65   1.367   1_565  A
N64        C1591   1.459       .  S
C65          C66   1.381       .  A
C65        C1204   1.480       .  S
C66          C67   1.363   1_545  A
C66          H69   1.083       .  S
C67          C68   1.382       .  A
C67          H70   1.082       .  S
C68        C1183   1.495       .  S
N71          C75   1.368       .  A
N71          C72   1.368       .  A
N71        C1447   1.459       .  S
C72          C73   1.384       .  A
C72        C1132   1.484       .  S
C73          C74   1.357       .  A
C73          H76   1.083       .  S
C74          C75   1.378       .  A
C74          H77   1.083       .  S
C75        C1159   1.482       .  S
N78          C82   1.366       .  A
N78          C79   1.368       .  A
N78        C1375   1.463       .  S
C79          C80   1.379       .  A
C79        C1087   1.484       .  S
C80          C81   1.366       .  A
C80          H83   1.083       .  S
C81          C82   1.381       .  A
C81          H84   1.083       .  S
C82        C1108   1.484       .  S
N85          C89   1.361       .  A
N85          C86   1.362       .  A
N85        C1012   1.452       .  S
C86          C87   1.383       .  A
C86        C1060   1.480       .  S
C87          C88   1.371       .  A
C87          H90   1.083       .  S
C88          C89   1.382       .  A
C88          H91   1.082       .  S
C89        C1039   1.488       .  S
N92          C96   1.365       .  A
N92          C93   1.367       .  A
N92         C940   1.454       .  S
C93          C94   1.381       .  A
C93         C991   1.481       .  S
C94          C95   1.365       .  A
C94          H97   1.083       .  S
C95          C96   1.379       .  A
C95          H98   1.083       .  S
C96         C964   1.481       .  S
N99         C103   1.371       .  A
N99         C100   1.368       .  A
N99         C868   1.460       .  S
C100        C101   1.378       .  A
C100        C895   1.480       .  S
C101        C102   1.359       .  A
C101        H104   1.083       .  S
C102        C103   1.382       .  A
C102        H105   1.083       .  S
C103        C916   1.479       .  S
O106        C122   1.276       .  A
O106       Zn112   2.034       .  S
C107        C844   1.491       .  S
C107        O123   1.276       .  A
C107        O120   1.280       .  A
O108        C121   1.278       .  A
O108       Cd115   2.093       .  S
O109        C127   1.278       .  A
O109       Cd118   2.092       .  S
O110        C124   1.275       .  A
O110       Cd114   2.076       .  S
O111        C122   1.278       .  A
O111       Cd114   2.088       .  S
Zn112       O123   2.027       .  S
Zn112       O125   2.021       .  S
Zn112       O117   1.950       .  S
O113        C124   1.278       .  A
O113       Cd118   2.095       .  S
Cd114       O116   2.076       .  S
Cd114       O117   2.011       .  S
Cd115       O119   2.077       .  S
Cd115       O128   2.087       .  S
Cd115       O117   2.013       .  S
O116        C126   1.275       .  A
O117       Cd118   2.014       .  S
Cd118       O120   2.105       .  S
O119        C126   1.277       .  A
C121        C919   1.489       .  S
C121        O125   1.275       .  A
C122       C1036   1.490       .  S
C124       C1279   1.477       .  S
C126       C1420   1.482       .  S
C127       C1564   1.486       .  S
C127        O128   1.277       .  A
N129        C133   1.369       .  A
N129        C130   1.371       .  A
N129        C772   1.464       .  S
C130        C131   1.383       .  A
C130        C823   1.487       .  S
C131        C132   1.362       .  A
C131        H134   1.083       .  S
C132        C133   1.380       .  A
C132        H135   1.082       .  S
C133        C796   1.490       .  S
N136        C140   1.371       .  A
N136        C137   1.369       .  A
N136        C724   1.461       .  S
C137        C138   1.383       .  A
C137        C847   1.488       .  S
C138        C139   1.361       .  A
C138        H141   1.083       .  S
C139        C140   1.379       .  A
C139        H142   1.082       .  S
C140        C748   1.491       .  S
O143        C159   1.272       .  A
O143       Zn149   1.987       .  S
C144        C820   1.490       .  S
C144        O160   1.275       .  A
C144        O157   1.279       .  A
O145        C158   1.278       .  A
O145       Cd152   2.101       .  S
O146        C164   1.277       .  A
O146       Cd155   2.086       .  S
O147        C161   1.278       .  A
O147       Cd151   2.100       .  S
O148        C159   1.278       .  A
O148       Cd151   2.107       .  S
Zn149       O160   2.022       .  S
Zn149       O162   2.015       .  S
Zn149       O154   1.933       .  S
O150        C161   1.272       .  A
O150       Cd155   2.055       .  S
Cd151       O153   2.087       .  S
Cd151       O154   2.026       .  S
Cd152       O156   2.094       .  S
Cd152       O165   2.085       .  S
Cd152       O154   2.014       .  S
O153        C163   1.279       .  A
O154       Cd155   2.010       .  S
Cd155       O157   2.104       .  S
O156        C163   1.278       .  A
C158        C751   1.491       .  S
C158        O162   1.273       .  A
C159        C700   1.482       .  S
C161       C1399   1.472       .  S
C163       C1687   1.483       .  S
C164       C1255   1.483       .  S
C164        O165   1.278       .  A
N166        C170   1.364       .  A
N166        C167   1.364       .  A
N166        C871   1.459       .  S
C167        C168   1.383       .  A
C167        C679   1.480       .  S
C168        C169   1.367       .  A
C168        H171   1.083       .  S
C169        C170   1.378       .  A
C169        H172   1.083       .  S
C170        C652   1.482       .  S
O173        C189   1.277       .  A
O173       Zn179   2.029       .  S
C174       C1543   1.497       .  S
C174        O190   1.276       .  A
C174        O187   1.280       .  A
O175        C188   1.278       .  A
O175       Cd182   2.086       .  S
O176        C194   1.278       .  A
O176       Cd185   2.088       .  S
O177        C191   1.277       .  A
O177       Cd181   2.074       .  S
O178        C189   1.279       .  A
O178       Cd181   2.099       .  S
Zn179       O190   2.038       .  S
Zn179       O192   2.024       .  S
Zn179       O184   1.956       .  S
O180        C191   1.278       .  A
O180       Cd185   2.091       .  S
Cd181       O183   2.099       .  S
Cd181       O184   2.017       .  S
Cd182       O186   2.083       .  S
Cd182       O195   2.086       .  S
Cd182       O184   2.010       .  S
O183        C193   1.278       .  A
O184       Cd185   2.011       .  S
Cd185       O187   2.102       .  S
O186        C193   1.277       .  A
C188       C1156   1.485       .  S
C188        O192   1.276       .  A
C189       C1759   1.494       .  S
C191        C628   1.484       .  S
C193       C1063   1.494       .  S
C194        C676   1.489       .  S
C194        O195   1.277       .  A
N196        C200   1.360       .  A
N196        C197   1.362       .  A
N196       C1015   1.449       .  S
C197        C198   1.381       .  A
C197        C604   1.479       .  S
C198        C199   1.367       .  A
C198        H201   1.083       .  S
C199        C200   1.381       .  A
C199        H202   1.083       .  S
C200        C703   1.476       .  S
N203        C207   1.364       .  A
N203        C204   1.364       .  A
N203        C556   1.461       .  S
C204        C205   1.383       .  A
C204        C631   1.478       .  S
C205        C206   1.367       .  A
C205        H208   1.083       .  S
C206        C207   1.378       .  A
C206        H209   1.083       .  S
C207        C580   1.479       .  S
N210        C214   1.369       .  A
N210        C211   1.368       .  A
N210        C775   1.463       .  S
C211        C212   1.380       .  A
C211        C532   1.491       .  S
C212        C213   1.364       .  A
C212        H215   1.082       .  S
C213        C214   1.382       .  A
C213        H216   1.083       .  S
C214        C511   1.483       .  S
O217        C233   1.272       .  A
O217       Zn223   2.003       .  S
C218       C1327   1.482       .  S
C218        O234   1.274       .  A
C218        O231   1.277       .  A
O219        C232   1.279       .  A
O219       Cd226   2.098       .  S
O220        C238   1.276       .  A
O220       Cd229   2.078       .  S
O221        C235   1.279       .  A
O221       Cd225   2.100       .  S
O222        C233   1.281       .  A
O222       Cd225   2.123       .  S
Zn223       O234   2.016       .  S
Zn223       O236   1.995       .  S
Zn223       O228   1.940       .  S
O224        C235   1.274       .  A
O224       Cd229   2.058       .  S
Cd225       O227   2.091       .  S
Cd225       O228   2.022       .  S
Cd226       O230   2.100       .  S
Cd226       O239   2.103       .  S
Cd226       O228   2.018       .  S
O227        C237   1.280       .  A
O228       Cd229   2.003       .  S
Cd229       O231   2.082       .  S
O230        C237   1.280       .  A
C232       C1135   1.483       .  S
C232        O236   1.272       .  A
C233       C1231   1.489       .  S
C235        C583   1.484       .  S
C237        C508   1.492       .  S
C238        C607   1.487       .  S
C238        O239   1.279       .  A
N240        C244   1.368       .  A
N240        C241   1.369       .  A
N240        C727   1.461       .  S
C241        C242   1.385       .  A
C241        C484   1.485       .  S
C242        C243   1.361       .  A
C242        H245   1.083       .  S
C243        C244   1.378       .  A
C243        H246   1.082       .  S
C244        C460   1.486       .  S
O247        C263   1.276       .  A
O247       Zn253   2.024       .  S
C248        C799   1.491       .  S
C248        O264   1.276       .  A
C248        O261   1.278       .  A
O249        C262   1.279       .  A
O249       Cd256   2.084       .  S
O250        C268   1.276       .  A
O250       Cd259   2.078       .  S
O251        C265   1.277       .  A
O251       Cd255   2.084       .  S
O252        C263   1.280       .  A
O252       Cd255   2.096       .  S
Zn253       O264   2.043       .  S
Zn253       O266   2.035       .  S
Zn253       O258   1.962       .  S
O254        C265   1.275       .  A
O254       Cd259   2.078       .  S
Cd255       O257   2.102       .  S
Cd255       O258   2.013       .  S
Cd256       O260   2.079       .  S
Cd256       O269   2.090       .  S
Cd256       O258   2.004       .  S
O257        C267   1.279       .  A
O258       Cd259   2.003       .  S
Cd259       O261   2.081       .  S
O260        C267   1.276       .  A
C262        C439   1.488       .  S
C262        O266   1.277       .  A
C263        C463   1.490       .  S
C265       C1636   1.477       .  S
C267       C1711   1.491       .  S
C268       C1084   1.490       .  S
C268        O269   1.278       .  A
N270        C274   1.371       .  A
N270        C271   1.372       .  A
N270        C559   1.464       .  S
C271        C272   1.380       .  A
C271        C415   1.491       .  S
C272        C273   1.359       .  A
C272        H275   1.082       .  S
C273        C274   1.381       .  A
C273        H276   1.083       .  S
C274        C391   1.483       .  S
N277        C281   1.363       .  A
N277        C278   1.366       .  A
N277        C943   1.455       .  S
C278        C279   1.382       .  A
C278        C364   1.482       .  S
C279        C280   1.367       .  A
C279        H282   1.083       .  S
C280        C281   1.382       .  A
C280        H283   1.082       .  S
C281        C436   1.487       .  S
O284        C300   1.275       .  A
O284       Zn290   2.025       .  S
C285        C412   1.491       .  S
C285        O301   1.276       .  A
C285        O298   1.278       .  A
O286        C299   1.278       .  A
O286       Cd293   2.089       .  S
O287        C305   1.276       .  A
O287       Cd296   2.075       .  S
O288        C302   1.279       .  A
O288       Cd292   2.096       .  S
O289        C300   1.281       .  A
O289       Cd292   2.101       .  S
Zn290       O301   2.026       .  S
Zn290       O303   2.030       .  S
Zn290       O295   1.951       .  S
O291        C302   1.275       .  A
O291       Cd296   2.069       .  S
Cd292       O294   2.095       .  S
Cd292       O295   2.012       .  S
Cd293       O297   2.079       .  S
Cd293       O306   2.084       .  S
Cd293       O295   2.010       .  S
O294        C304   1.278       .  A
O295       Cd296   2.007       .  S
Cd296       O298   2.095       .  S
O297        C304   1.276       .  A
C299        C367   1.484       .  S
C299        O303   1.276       .  A
C300        C535   1.491       .  S
C302       C1612   1.486       .  S
C304       C1468   1.482       .  S
C305       C1351   1.482       .  S
C305        O306   1.276       .  A
O307        C323   1.277       .  A
O307       Zn313   2.045       .  S
C308       C1180   1.492       .  S
C308        O324   1.276       .  A
C308        O321   1.279       .  A
O309        C322   1.280       .  A
O309       Cd316   2.101       .  S
O310        C328   1.277       .  A
O310       Cd319   2.091       .  S
O311        C325   1.277       .  A
O311       Cd315   2.089       .  S
O312        C323   1.276       .  A
O312       Cd315   2.076       .  S
Zn313       O324   2.028       .  S
Zn313       O326   2.020       .  S
Zn313       O318   1.958       .  S
O314        C325   1.277       .  A
O314       Cd319   2.085       .  S
Cd315       O317   2.089       .  S
Cd315       O318   2.008       .  S
Cd316       O320   2.089       .  S
Cd316       O329   2.076       .  S
Cd316       O318   2.016       .  S
O317        C327   1.278       .  A
O318       Cd319   2.014       .  S
Cd319       O321   2.094       .  S
O320        C327   1.276       .  A
C322       C1783   1.491       .  S
C322        O326   1.276       .  A
C323       C1492   1.492       .  S
C325        C655   1.481       .  S
C327        C988   1.483       .  S
C328        C388   1.480       .  S
C328        O329   1.275       .  A
O330        C346   1.271       .  A
O330       Zn336   2.009       .  S
C331        C967   1.493       .  S
C331        O347   1.270       .  A
C331        O344   1.282       .  A
O332        C345   1.278       .  A
O332       Cd339   2.091       .  S
O333        C351   1.281       .  A
O333       Cd342   2.115       .  S
O334        C348   1.275       .  A
O334       Cd338   2.067       .  S
O335        C346   1.278       .  A
O335       Cd338   2.102       .  S
Zn336       O347   1.974       .  S
Zn336       O349   1.999       .  S
Zn336       O341   1.930       .  S
O337        C348   1.281       .  A
O337       Cd342   2.097       .  S
Cd338       O340   2.082       .  S
Cd338       O341   2.010       .  S
Cd339       O343   2.079       .  S
Cd339       O352   2.082       .  S
Cd339       O341   2.006       .  S
O340        C350   1.277       .  A
O341       Cd342   2.030       .  S
Cd342       O344   2.139       .  S
O343        C350   1.276       .  A
C345        C892   1.485       .  S
C345        O349   1.272       .  A
C346        C487   1.488       .  S
C348       C1303   1.478       .  S
C350       C1207   1.483       .  S
C351       C1111   1.492       .  S
C351        O352   1.277       .  A
C353        C354   1.401       .  A
C353        C358   1.404       .  A
C353        H369   1.084       .  S
C354        C355   1.404       .  A
C354        H370   1.083       .  S
C355        C365   1.406       .  A
C355        C356   1.412       .  A
C356        C362   1.411       .  A
C356        C357   1.415       .  A
C357        C359   1.412       .  A
C357        C358   1.412       .  A
C358        C366   1.407       .  A
C359        C368   1.405       .  A
C359        C360   1.404       .  A
C360        C361   1.399       .  A
C360        H371   1.083       .  S
C361        C362   1.403       .  A
C361        H372   1.084       .  S
C362        C363   1.403       .  A
C363        C364   1.406       .  A
C363        H373   1.085       .  S
C364        C365   1.408       .  A
C365        H374   1.084       .  S
C366        C367   1.408       .  A
C366        H375   1.084       .  S
C367        C368   1.408       .  A
C368        H376   1.084       .  S
C377        C378   1.401       .  A
C377        C382   1.405       .  A
C377        H393   1.083       .  S
C378        C379   1.404       .  A
C378        H394   1.083       .  S
C379        C389   1.408       .  A
C379        C380   1.414       .  A
C380        C386   1.411       .  A
C380        C381   1.416       .  A
C381        C383   1.413       .  A
C381        C382   1.410       .  A
C382        C390   1.405       .  A
C383        C392   1.408       .  A
C383        C384   1.404       .  A
C384        C385   1.401       .  A
C384        H395   1.083       .  S
C385        C386   1.404       .  A
C385        H396   1.083       .  S
C386        C387   1.405       .  A
C387        C388   1.407       .  A
C387        H397   1.084       .  S
C388        C389   1.405       .  A
C389        H398   1.084       .  S
C390        C391   1.408       .  A
C390        H399   1.084       .  S
C391        C392   1.407       .  A
C392        H400   1.084       .  S
C401        C402   1.401       .  A
C401        C406   1.405       .  A
C401        H417   1.084       .  S
C402        C403   1.404       .  A
C402        H418   1.083       .  S
C403        C413   1.409       .  A
C403        C404   1.413       .  A
C404        C410   1.409       .  A
C404        C405   1.416       .  A
C405        C407   1.415       .  A
C405        C406   1.409       .  A
C406        C414   1.402       .  A
C407        C416   1.411       .  A
C407        C408   1.404       .  A
C408        C409   1.401       .  A
C408        H419   1.083       .  S
C409        C410   1.405       .  A
C409        H420   1.083       .  S
C410        C411   1.405       .  A
C411        C412   1.410       .  A
C411        H421   1.084       .  S
C412        C413   1.410       .  A
C413        H422   1.084       .  S
C414        C415   1.410       .  A
C414        H423   1.084       .  S
C415        C416   1.406       .  A
C416        H424   1.084       .  S
C425        C426   1.398       .  A
C425        C430   1.403       .  A
C425        H441   1.083       .  S
C426        C427   1.403       .  A
C426        H442   1.084       .  S
C427        C437   1.401       .  A
C427        C428   1.411       .  A
C428        C434   1.413       .  A
C428        C429   1.414       .  A
C429        C431   1.411       .  A
C429        C430   1.411       .  A
C430        C438   1.403       .  A
C431        C440   1.408       .  A
C431        C432   1.405       .  A
C432        C433   1.402       .  A
C432        H443   1.083       .  S
C433        C434   1.405       .  A
C433        H444   1.084       .  S
C434        C435   1.409       .  A
C435        C436   1.408       .  A
C435        H445   1.084       .  S
C436        C437   1.406       .  A
C437        H446   1.084       .  S
C438        C439   1.407       .  A
C438        H447   1.083       .  S
C439        C440   1.411       .  A
C440        H448   1.084       .  S
C449        C450   1.401       .  A
C449        C454   1.405       .  A
C449        H465   1.083       .  S
C450        C451   1.404       .  A
C450        H466   1.084       .  S
C451        C461   1.409       .  A
C451        C452   1.414       .  A
C452        C458   1.410       .  A
C452        C453   1.415       .  A
C453        C455   1.413       .  A
C453        C454   1.410       .  A
C454        C462   1.406       .  A
C455        C464   1.406       .  A
C455        C456   1.403       .  A
C456        C457   1.399       .  A
C456        H467   1.083       .  S
C457        C458   1.404       .  A
C457        H468   1.084       .  S
C458        C459   1.401       .  A
C459        C460   1.407       .  A
C459        H469   1.084       .  S
C460        C461   1.405       .  A
C461        H470   1.084       .  S
C462        C463   1.411       .  A
C462        H471   1.084       .  S
C463        C464   1.408       .  A
C464        H472   1.083       .  S
C473        C474   1.402       .  A
C473        C478   1.405       .  A
C473        H489   1.083       .  S
C474        C475   1.404       .  A
C474        H490   1.084       .  S
C475        C485   1.410       .  A
C475        C476   1.413       .  A
C476        C482   1.410       .  A
C476        C477   1.416       .  A
C477        C479   1.413       .  A
C477        C478   1.410       .  A
C478        C486   1.406       .  A
C479        C488   1.408       .  A
C479        C480   1.403       .  A
C480        C481   1.400       .  A
C480        H491   1.083       .  S
C481        C482   1.404       .  A
C481        H492   1.084       .  S
C482        C483   1.404       .  A
C483        C484   1.409       .  A
C483        H493   1.084       .  S
C484        C485   1.408       .  A
C485        H494   1.084       .  S
C486        C487   1.411       .  A
C486        H495   1.084       .  S
C487        C488   1.407       .  A
C488        H496   1.083       .  S
C497        C498   1.400       .  A
C497        C502   1.404       .  A
C497        H513   1.084       .  S
C498        C499   1.404       .  A
C498        H514   1.083       .  S
C499        C509   1.406       .  A
C499        C500   1.411       .  A
C500        C506   1.412       .  A
C500        C501   1.417       .  A
C501        C503   1.413       .  A
C501        C502   1.411       .  A
C502        C510   1.405       .  A
C503        C512   1.410       .  A
C503        C504   1.405       .  A
C504        C505   1.403       .  A
C504        H515   1.083       .  S
C505        C506   1.405       .  A
C505        H516   1.083       .  S
C506        C507   1.410       .  A
C507        C508   1.410       .  A
C507        H517   1.083       .  S
C508        C509   1.409       .  A
C509        H518   1.084       .  S
C510        C511   1.407       .  A
C510        H519   1.085       .  S
C511        C512   1.407       .  A
C512        H520   1.084       .  S
C521        C522   1.398       .  A
C521        C526   1.403       .  A
C521        H537   1.083       .  S
C522        C523   1.403       .  A
C522        H538   1.084       .  S
C523        C533   1.401       .  A
C523        C524   1.410       .  A
C524        C530   1.414       .  A
C524        C525   1.416       .  A
C525        C527   1.410       .  A
C525        C526   1.412       .  A
C526        C534   1.405       .  A
C527        C536   1.409       .  A
C527        C528   1.406       .  A
C528        C529   1.404       .  A
C528        H539   1.083       .  S
C529        C530   1.405       .  A
C529        H540   1.083       .  S
C530        C531   1.412       .  A
C531        C532   1.408       .  A
C531        H541   1.084       .  S
C532        C533   1.407       .  A
C533        H542   1.084       .  S
C534        C535   1.407       .  A
C534        H543   1.083       .  S
C535        C536   1.413       .  A
C536        H544   1.084       .  S
C545        C546   1.406       .  A
C545        C550   1.407       .  A
C545        H561   1.084       .  S
C546        C547   1.407       .  A
C546        H562   1.083       .  S
C547        C557   1.415       .  A
C547        C548   1.411       .  A
C548        C554   1.409       .  A
C548        C549   1.419       .  A
C549        C551   1.408       .  A
C549        C550   1.410       .  A
C550        C558   1.416       .  A
C551        C560   1.402       .  A
C551        C552   1.403       .  A
C552        C553   1.397       .  A
C552        H563   1.082       .  S
C553        C554   1.403       .  A
C553        H564   1.085       .  S
C554        C555   1.401       .  A
C555        C556   1.413       .  A
C555        H565   1.081       .  S
C556        C557   1.417       .  A
C557        H566   1.081       .  S
C558        C559   1.418       .  A
C558        H567   1.081       .  S
C559        C560   1.414       .  A
C560        H568   1.078       .  S
C569        C570   1.401       .  A
C569        C574   1.404       .  A
C569        H585   1.083       .  S
C570        C571   1.404       .  A
C570        H586   1.083       .  S
C571        C581   1.406       .  A
C571        C572   1.412       .  A
C572        C578   1.412       .  A
C572        C573   1.414       .  A
C573        C575   1.410       .  A
C573        C574   1.413       .  A
C574        C582   1.408       .  A
C575        C584   1.403       .  A
C575        C576   1.404       .  A
C576        C577   1.399       .  A
C576        H587   1.084       .  S
C577        C578   1.404       .  A
C577        H588   1.084       .  S
C578        C579   1.404       .  A
C579        C580   1.405       .  A
C579        H589   1.085       .  S
C580        C581   1.406       .  A
C581        H590   1.084       .  S
C582        C583   1.407       .  A
C582        H591   1.084       .  S
C583        C584   1.409       .  A
C584        H592   1.085       .  S
C593        C594   1.401       .  A
C593        C598   1.404       .  A
C593        H609   1.083       .  S
C594        C595   1.405       .  A
C594        H610   1.084       .  S
C595        C605   1.405       .  A
C595        C596   1.410       .  A
C596        C602   1.413       .  A
C596        C597   1.416       .  A
C597        C599   1.410       .  A
C597        C598   1.413       .  A
C598        C606   1.409       .  A
C599        C608   1.406       .  A
C599        C600   1.405       .  A
C600        C601   1.401       .  A
C600        H611   1.083       .  S
C601        C602   1.403       .  A
C601        H612   1.083       .  S
C602        C603   1.408       .  A
C603        C604   1.404       .  A
C603        H613   1.083       .  S
C604        C605   1.408       .  A
C605        H614   1.085       .  S
C606        C607   1.408       .  A
C606        H615   1.084       .  S
C607        C608   1.409       .  A
C608        H616   1.084       .  S
C617        C618   1.399       .  A
C617        C622   1.404       .  A
C617        H633   1.083       .  S
C618        C619   1.404       .  A
C618        H634   1.084       .  S
C619        C629   1.403       .  A
C619        C620   1.411       .  A
C620        C626   1.412       .  A
C620        C621   1.414       .  A
C621        C623   1.412       .  A
C621        C622   1.412       .  A
C622        C630   1.404       .  A
C623        C632   1.407       .  A
C623        C624   1.404       .  A
C624        C625   1.401       .  A
C624        H635   1.083       .  S
C625        C626   1.404       .  A
C625        H636   1.083       .  S
C626        C627   1.408       .  A
C627        C628   1.408       .  A
C627        H637   1.083       .  S
C628        C629   1.408       .  A
C629        H638   1.085       .  S
C630        C631   1.406       .  A
C630        H639   1.085       .  S
C631        C632   1.405       .  A
C632        H640   1.084       .  S
C641        C642   1.399       .  A
C641        C646   1.403       .  A
C641        H657   1.084       .  S
C642        C643   1.403       .  A
C642        H658   1.084       .  S
C643        C653   1.405       .  A
C643        C644   1.412       .  A
C644        C650   1.412       .  A
C644        C645   1.415       .  A
C645        C647   1.413       .  A
C645        C646   1.412       .  A
C646        C654   1.404       .  A
C647        C656   1.409       .  A
C647        C648   1.405       .  A
C648        C649   1.402       .  A
C648        H659   1.083       .  S
C649        C650   1.405       .  A
C649        H660   1.083       .  S
C650        C651   1.408       .  A
C651        C652   1.407       .  A
C651        H661   1.084       .  S
C652        C653   1.404       .  A
C653        H662   1.085       .  S
C654        C655   1.405       .  A
C654        H663   1.085       .  S
C655        C656   1.407       .  A
C656        H664   1.084       .  S
C665        C666   1.402       .  A
C665        C670   1.404       .  A
C665        H681   1.083       .  S
C666        C667   1.405       .  A
C666        H682   1.083       .  S
C667        C677   1.408       .  A
C667        C668   1.411       .  A
C668        C674   1.411       .  A
C668        C669   1.415       .  A
C669        C671   1.411       .  A
C669        C670   1.413       .  A
C670        C678   1.408       .  A
C671        C680   1.404       .  A
C671        C672   1.404       .  A
C672        C673   1.399       .  A
C672        H683   1.084       .  S
C673        C674   1.404       .  A
C673        H684   1.084       .  S
C674        C675   1.405       .  A
C675        C676   1.409       .  A
C675        H685   1.084       .  S
C676        C677   1.410       .  A
C677        H686   1.083       .  S
C678        C679   1.405       .  A
C678        H687   1.084       .  S
C679        C680   1.406       .  A
C680        H688   1.085       .  S
C689        C690   1.397       .  A
C689        C694   1.402       .  A
C689        H705   1.083       .  S
C690        C691   1.403       .  A
C690        H706   1.083       .  S
C691        C701   1.398       .  A
C691        C692   1.409       .  A
C692        C698   1.415       .  A
C692        C693   1.413       .  A
C693        C695   1.410       .  A
C693        C694   1.414       .  A
C694        C702   1.403       .  A
C695        C704   1.405       .  A
C695        C696   1.405       .  A
C696        C697   1.402       .  A
C696        H707   1.084       .  S
C697        C698   1.404       .  A
C697        H708   1.083       .  S
C698        C699   1.411       .  A
C699        C700   1.407       .  A
C699        H709   1.084       .  S
C700        C701   1.408       .  A
C701        H710   1.084       .  S
C702        C703   1.403       .  A
C702        H711   1.084       .  S
C703        C704   1.406       .  A
C704        H712   1.085       .  S
C713        C714   1.396       .  A
C713        C718   1.403       .  A
C713        H729   1.084       .  S
C714        C715   1.403       .  A
C714        H730   1.083       .  S
C715        C725   1.402       .  A
C715        C716   1.409       .  A
C716        C722   1.410       .  A
C716        C717   1.419       .  A
C717        C719   1.412       .  A
C717        C718   1.408       .  A
C718        C726   1.400       .  A
C719        C728   1.418       .  A
C719        C720   1.407       .  A
C720        C721   1.408       .  A
C720        H731   1.083       .  S
C721        C722   1.407       .  A
C721        H732   1.084       .  S
C722        C723   1.417       .  A
C723        C724   1.416       .  A
C723        H733   1.081       .  S
C724        C725   1.413       .  A
C725        H734   1.082       .  S
C726        C727   1.413       .  A
C726        H735   1.082       .  S
C727        C728   1.415       .  A
C728        H736   1.080       .  S
C737        C738   1.401       .  A
C737        C742   1.404       .  A
C737        H753   1.083       .  S
C738        C739   1.405       .  A
C738        H754   1.084       .  S
C739        C749   1.405       .  A
C739        C740   1.409       .  A
C740        C746   1.414       .  A
C740        C741   1.417       .  A
C741        C743   1.410       .  A
C741        C742   1.413       .  A
C742        C750   1.409       .  A
C743        C752   1.406       .  A
C743        C744   1.405       .  A
C744        C745   1.402       .  A
C744        H755   1.083       .  S
C745        C746   1.404       .  A
C745        H756   1.084       .  S
C746        C747   1.411       .  A
C747        C748   1.406       .  A
C747        H757   1.084       .  S
C748        C749   1.410       .  A
C749        H758   1.084       .  S
C750        C751   1.408       .  A
C750        H759   1.083       .  S
C751        C752   1.411       .  A
C752        H760   1.084       .  S
C761        C762   1.404       .  A
C761        C766   1.406       .  A
C761        H777   1.084       .  S
C762        C763   1.406       .  A
C762        H778   1.083       .  S
C763        C773   1.412       .  A
C763        C764   1.409       .  A
C764        C770   1.408       .  A
C764        C765   1.419       .  A
C765        C767   1.408       .  A
C765        C766   1.410       .  A
C766        C774   1.413       .  A
C767        C776   1.405       .  A
C767        C768   1.404       .  A
C768        C769   1.399       .  A
C768        H779   1.084       .  S
C769        C770   1.404       .  A
C769        H780   1.084       .  S
C770        C771   1.405       .  A
C771        C772   1.416       .  A
C771        H781   1.080       .  S
C772        C773   1.415       .  A
C773        H782   1.077       .  S
C774        C775   1.415       .  A
C774        H783   1.081       .  S
C775        C776   1.417       .  A
C776        H784   1.080       .  S
C785        C786   1.404       .  A
C785        C790   1.406       .  A
C785        H801   1.083       .  S
C786        C787   1.405       .  A
C786        H802   1.084       .  S
C787        C797   1.412       .  A
C787        C788   1.413       .  A
C788        C794   1.410       .  A
C788        C789   1.416       .  A
C789        C791   1.411       .  A
C789        C790   1.411       .  A
C790        C798   1.411       .  A
C791        C800   1.403       .  A
C791        C792   1.403       .  A
C792        C793   1.398       .  A
C792        H803   1.083       .  S
C793        C794   1.403       .  A
C793        H804   1.084       .  S
C794        C795   1.401       .  A
C795        C796   1.407       .  A
C795        H805   1.084       .  S
C796        C797   1.408       .  A
C797        H806   1.084       .  S
C798        C799   1.412       .  A
C798        H807   1.084       .  S
C799        C800   1.408       .  A
C800        H808   1.083       .  S
C809        C810   1.400       .  A
C809        C814   1.403       .  A
C809        H825   1.084       .  S
C810        C811   1.404       .  A
C810        H826   1.083       .  S
C811        C821   1.405       .  A
C811        C812   1.410       .  A
C812        C818   1.413       .  A
C812        C813   1.416       .  A
C813        C815   1.410       .  A
C813        C814   1.413       .  A
C814        C822   1.407       .  A
C815        C824   1.406       .  A
C815        C816   1.405       .  A
C816        C817   1.402       .  A
C816        H827   1.084       .  S
C817        C818   1.405       .  A
C817        H828   1.083       .  S
C818        C819   1.410       .  A
C819        C820   1.409       .  A
C819        H829   1.083       .  S
C820        C821   1.409       .  A
C821        H830   1.084       .  S
C822        C823   1.407       .  A
C822        H831   1.084       .  S
C823        C824   1.409       .  A
C824        H832   1.084       .  S
C833        C834   1.401       .  A
C833        C838   1.405       .  A
C833        H849   1.083       .  S
C834        C835   1.404       .  A
C834        H850   1.083       .  S
C835        C845   1.409       .  A
C835        C836   1.413       .  A
C836        C842   1.410       .  A
C836        C837   1.417       .  A
C837        C839   1.413       .  A
C837        C838   1.410       .  A
C838        C846   1.405       .  A
C839        C848   1.410       .  A
C839        C840   1.404       .  A
C840        C841   1.401       .  A
C840        H851   1.083       .  S
C841        C842   1.405       .  A
C841        H852   1.083       .  S
C842        C843   1.406       .  A
C843        C844   1.410       .  A
C843        H853   1.084       .  S
C844        C845   1.409       .  A
C845        H854   1.084       .  S
C846        C847   1.409       .  A
C846        H855   1.084       .  S
C847        C848   1.408       .  A
C848        H856   1.084       .  S
C857        C858   1.405       .  A
C857        C862   1.406       .  A
C857        H873   1.083       .  S
C858        C859   1.406       .  A
C858        H874   1.084       .  S
C859        C869   1.413       .  A
C859        C860   1.410       .  A
C860        C866   1.408       .  A
C860        C861   1.417       .  A
C861        C863   1.409       .  A
C861        C862   1.411       .  A
C862        C870   1.413       .  A
C863        C872   1.402       .  A
C863        C864   1.403       .  A
C864        C865   1.398       .  A
C864        H875   1.084       .  S
C865        C866   1.403       .  A
C865        H876   1.083       .  S
C866        C867   1.402       .  A
C867        C868   1.412       .  A
C867        H877   1.080       .  S
C868        C869   1.414       .  A
C869        H878   1.076       .  S
C870        C871   1.415       .  A
C870        H879   1.081       .  S
C871        C872   1.414       .  A
C872        H880   1.082       .  S
C881        C882   1.401       .  A
C881        C886   1.404       .  A
C881        H897   1.084       .  S
C882        C883   1.405       .  A
C882        H898   1.083       .  S
C883        C893   1.404       .  A
C883        C884   1.409       .  A
C884        C890   1.413       .  A
C884        C885   1.413       .  A
C885        C887   1.410       .  A
C885        C886   1.414       .  A
C886        C894   1.409       .  A
C887        C896   1.399       .  A
C887        C888   1.403       .  A
C888        C889   1.397       .  A
C888        H899   1.084       .  S
C889        C890   1.402       .  A
C889        H900   1.083       .  S
C890        C891   1.403       .  A
C891        C892   1.406       .  A
C891        H901   1.083       .  S
C892        C893   1.412       .  A
C893        H902   1.084       .  S
C894        C895   1.405       .  A
C894        H903   1.084       .  S
C895        C896   1.405       .  A
C896        H904   1.085       .  S
C905        C906   1.401       .  A
C905        C910   1.404       .  A
C905        H921   1.083       .  S
C906        C907   1.405       .  A
C906        H922   1.084       .  S
C907        C917   1.405       .  A
C907        C908   1.410       .  A
C908        C914   1.412       .  A
C908        C909   1.415       .  A
C909        C911   1.410       .  A
C909        C910   1.412       .  A
C910        C918   1.408       .  A
C911        C920   1.403       .  A
C911        C912   1.404       .  A
C912        C913   1.399       .  A
C912        H923   1.083       .  S
C913        C914   1.403       .  A
C913        H924   1.084       .  S
C914        C915   1.405       .  A
C915        C916   1.406       .  A
C915        H925   1.085       .  S
C916        C917   1.409       .  A
C917        H926   1.085       .  S
C918        C919   1.409       .  A
C918        H927   1.083       .  S
C919        C920   1.409       .  A
C920        H928   1.083       .  S
C929        C930   1.400       .  A
C929        C934   1.404       .  A
C929        H945   1.083       .  S
C930        C931   1.404       .  A
C930        H946   1.084       .  S
C931        C941   1.403       .  A
C931        C932   1.408       .  A
C932        C938   1.412       .  A
C932        C933   1.416       .  A
C933        C935   1.408       .  A
C933        C934   1.411       .  A
C934        C942   1.406       .  A
C935        C944   1.405       .  A
C935        C936   1.405       .  A
C936        C937   1.402       .  A
C936        H947   1.084       .  S
C937        C938   1.404       .  A
C937        H948   1.083       .  S
C938        C939   1.410       .  A
C939        C940   1.410       .  A
C939        H949   1.081       .  S
C940        C941   1.412       .  A
C941        H950   1.080       .  S
C942        C943   1.409       .  A
C942        H951   1.076       .  S
C943        C944   1.414       .  A
C944        H952   1.083       .  S
C953        C954   1.397       .  A
C953        C958   1.404       .  A
C953        H969   1.084       .  S
C954        C955   1.402       .  A
C954        H970   1.083       .  S
C955        C965   1.403       .  A
C955        C956   1.413       .  A
C956        C962   1.410       .  A
C956        C957   1.416       .  A
C957        C959   1.415       .  A
C957        C958   1.408       .  A
C958        C966   1.398       .  A
C959        C968   1.416       .  A
C959        C960   1.405       .  A
C960        C961   1.405       .  A
C960        H971   1.083       .  S
C961        C962   1.406       .  A
C961        H972   1.083       .  S
C962        C963   1.410       .  A
C963        C964   1.410       .  A
C963        H973   1.084       .  S
C964        C965   1.403       .  A
C965        H974   1.084       .  S
C966        C967   1.411       .  A
C966        H975   1.084       .  S
C967        C968   1.410       .  A
C968        H976   1.083       .  S
C977        C978   1.399       .  A
C977        C982   1.403       .  A
C977        H993   1.083       .  S
C978        C979   1.403       .  A
C978        H994   1.084       .  S
C979        C989   1.406       .  A
C979        C980   1.413       .  A
C980        C986   1.412       .  A
C980        C981   1.416       .  A
C981        C983   1.412       .  A
C981        C982   1.411       .  A
C982        C990   1.403       .  A
C983        C992   1.410       .  A
C983        C984   1.405       .  A
C984        C985   1.403       .  A
C984        H995   1.083       .  S
C985        C986   1.405       .  A
C985        H996   1.084       .  S
C986        C987   1.409       .  A
C987        C988   1.409       .  A
C987        H997   1.084       .  S
C988        C989   1.405       .  A
C989        H998   1.084       .  S
C990        C991   1.406       .  A
C990        H999   1.085       .  S
C991        C992   1.408       .  A
C992       H1000   1.083       .  S
C1001      C1002   1.400       .  A
C1001      C1006   1.404       .  A
C1001      H1017   1.083       .  S
C1002      C1003   1.403       .  A
C1002      H1018   1.084       .  S
C1003      C1013   1.407       .  A
C1003      C1004   1.412       .  A
C1004      C1010   1.409       .  A
C1004      C1005   1.416       .  A
C1005      C1007   1.413       .  A
C1005      C1006   1.409       .  A
C1006      C1014   1.404       .  A
C1007      C1016   1.409       .  A
C1007      C1008   1.404       .  A
C1008      C1009   1.402       .  A
C1008      H1019   1.084       .  S
C1009      C1010   1.405       .  A
C1009      H1020   1.084       .  S
C1010      C1011   1.406       .  A
C1011      C1012   1.414       .  A
C1011      H1021   1.083       .  S
C1012      C1013   1.408       .  A
C1013      H1022   1.082       .  S
C1014      C1015   1.411       .  A
C1014      H1023   1.082       .  S
C1015      C1016   1.408       .  A
C1016      H1024   1.082       .  S
C1025      C1026   1.401       .  A
C1025      C1030   1.404       .  A
C1025      H1041   1.084       .  S
C1026      C1027   1.405       .  A
C1026      H1042   1.083       .  S
C1027      C1037   1.407       .  A
C1027      C1028   1.411       .  A
C1028      C1034   1.412       .  A
C1028      C1029   1.416       .  A
C1029      C1031   1.411       .  A
C1029      C1030   1.412       .  A
C1030      C1038   1.407       .  A
C1031      C1040   1.405       .  A
C1031      C1032   1.404       .  A
C1032      C1033   1.400       .  A
C1032      H1043   1.084       .  S
C1033      C1034   1.404       .  A
C1033      H1044   1.083       .  S
C1034      C1035   1.406       .  A
C1035      C1036   1.408       .  A
C1035      H1045   1.083       .  S
C1036      C1037   1.410       .  A
C1037      H1046   1.084       .  S
C1038      C1039   1.408       .  A
C1038      H1047   1.084       .  S
C1039      C1040   1.408       .  A
C1040      H1048   1.084       .  S
C1049      C1050   1.404       .  A
C1049      C1054   1.406       .  A
C1049      H1065   1.083       .  S
C1050      C1051   1.405       .  A
C1050      H1066   1.083       .  S
C1051      C1061   1.411       .  A
C1051      C1052   1.413       .  A
C1052      C1058   1.411       .  A
C1052      C1053   1.416       .  A
C1053      C1055   1.411       .  A
C1053      C1054   1.411       .  A
C1054      C1062   1.411       .  A
C1055      C1064   1.404       .  A
C1055      C1056   1.404       .  A
C1056      C1057   1.398       .  A
C1056      H1067   1.083       .  S
C1057      C1058   1.403       .  A
C1057      H1068   1.084       .  S
C1058      C1059   1.401       .  A
C1059      C1060   1.404       .  A
C1059      H1069   1.085       .  S
C1060      C1061   1.406       .  A
C1061      H1070   1.084       .  S
C1062      C1063   1.412       .  A
C1062      H1071   1.083       .  S
C1063      C1064   1.409       .  A
C1064      H1072   1.084       .  S
C1073      C1074   1.402       .  A
C1073      C1078   1.404       .  A
C1073      H1089   1.083       .  S
C1074      C1075   1.404       .  A
C1074      H1090   1.083       .  S
C1075      C1085   1.408       .  A
C1075      C1076   1.412       .  A
C1076      C1082   1.411       .  A
C1076      C1077   1.416       .  A
C1077      C1079   1.412       .  A
C1077      C1078   1.412       .  A
C1078      C1086   1.408       .  A
C1079      C1088   1.405       .  A
C1079      C1080   1.404       .  A
C1080      C1081   1.400       .  A
C1080      H1091   1.083       .  S
C1081      C1082   1.404       .  A
C1081      H1092   1.084       .  S
C1082      C1083   1.405       .  A
C1083      C1084   1.410       .  A
C1083      H1093   1.084       .  S
C1084      C1085   1.409       .  A
C1085      H1094   1.083       .  S
C1086      C1087   1.408       .  A
C1086      H1095   1.082       .  S
C1087      C1088   1.406       .  A
C1088      H1096   1.085       .  S
C1097      C1098   1.402       .  A
C1097      C1102   1.405       .  A
C1097      H1113   1.083       .  S
C1098      C1099   1.404       .  A
C1098      H1114   1.084       .  S
C1099      C1109   1.408       .  A
C1099      C1100   1.412       .  A
C1100      C1106   1.413       .  A
C1100      C1101   1.417       .  A
C1101      C1103   1.411       .  A
C1101      C1102   1.413       .  A
C1102      C1110   1.411       .  A
C1103      C1112   1.407       .  A
C1103      C1104   1.405       .  A
C1104      C1105   1.401       .  A
C1104      H1115   1.084       .  S
C1105      C1106   1.404       .  A
C1105      H1116   1.083   1_455  S
C1106      C1107   1.407   1_455  A
C1107      C1108   1.406       .  A
C1107      H1117   1.084       .  S
C1108      C1109   1.407   1_655  A
C1109      H1118   1.084       .  S
C1110      C1111   1.408       .  A
C1110      H1119   1.083       .  S
C1111      C1112   1.410       .  A
C1112      H1120   1.085       .  S
C1121      C1122   1.401       .  A
C1121      C1126   1.405       .  A
C1121      H1137   1.083       .  S
C1122      C1123   1.404       .  A
C1122      H1138   1.084       .  S
C1123      C1133   1.407       .  A
C1123      C1124   1.413       .  A
C1124      C1130   1.409       .  A
C1124      C1125   1.413       .  A
C1125      C1127   1.413       .  A
C1125      C1126   1.409       .  A
C1126      C1134   1.403       .  A
C1127      C1136   1.405       .  A
C1127      C1128   1.403       .  A
C1128      C1129   1.399       .  A
C1128      H1139   1.083       .  S
C1129      C1130   1.404       .  A
C1129      H1140   1.083       .  S
C1130      C1131   1.401       .  A
C1131      C1132   1.408       .  A
C1131      H1141   1.084       .  S
C1132      C1133   1.407       .  A
C1133      H1142   1.084       .  S
C1134      C1135   1.410       .  A
C1134      H1143   1.084       .  S
C1135      C1136   1.405       .  A
C1136      H1144   1.084       .  S
C1145      C1146   1.398       .  A
C1145      C1150   1.403       .  A
C1145      H1161   1.084       .  S
C1146      C1147   1.403       .  A
C1146      H1162   1.083       .  S
C1147      C1157   1.404       .  A
C1147      C1148   1.413       .  A
C1148      C1154   1.410       .  A
C1148      C1149   1.414       .  A
C1149      C1151   1.414       .  A
C1149      C1150   1.410       .  A
C1150      C1158   1.400       .  A
C1151      C1160   1.410   1_455  A
C1151      C1152   1.404       .  A
C1152      C1153   1.402       .  A
C1152      H1163   1.083       .  S
C1153      C1154   1.405       .  A
C1153      H1164   1.083       .  S
C1154      C1155   1.406       .  A
C1155      C1156   1.410       .  A
C1155      H1165   1.084       .  S
C1156      C1157   1.407       .  A
C1157      H1166   1.083       .  S
C1158      C1159   1.406   1_455  A
C1158      H1167   1.085       .  S
C1159      C1160   1.406       .  A
C1160      H1168   1.084       .  S
C1169      C1170   1.402       .  A
C1169      C1174   1.404       .  A
C1169      H1185   1.084       .  S
C1170      C1171   1.405       .  A
C1170      H1186   1.083       .  S
C1171      C1181   1.407       .  A
C1171      C1172   1.410       .  A
C1172      C1178   1.413       .  A
C1172      C1173   1.416       .  A
C1173      C1175   1.409       .  A
C1173      C1174   1.414       .  A
C1174      C1182   1.411       .  A
C1175      C1184   1.402       .  A
C1175      C1176   1.404       .  A
C1176      C1177   1.399       .  A
C1176      H1187   1.083       .  S
C1177      C1178   1.403       .  A
C1177      H1188   1.083       .  S
C1178      C1179   1.406       .  A
C1179      C1180   1.409       .  A
C1179      H1189   1.084       .  S
C1180      C1181   1.412       .  A
C1181      H1190   1.083       .  S
C1182      C1183   1.408       .  A
C1182      H1191   1.084       .  S
C1183      C1184   1.410       .  A
C1184      H1192   1.083       .  S
C1193      C1194   1.400       .  A
C1193      C1198   1.404       .  A
C1193      H1209   1.083       .  S
C1194      C1195   1.404       .  A
C1194      H1210   1.084       .  S
C1195      C1205   1.405       .  A
C1195      C1196   1.412       .  A
C1196      C1202   1.412       .  A
C1196      C1197   1.414       .  A
C1197      C1199   1.412       .  A
C1197      C1198   1.411       .  A
C1198      C1206   1.404       .  A
C1199      C1208   1.407       .  A
C1199      C1200   1.404       .  A
C1200      C1201   1.401       .  A
C1200      H1211   1.083       .  S
C1201      C1202   1.404       .  A
C1201      H1212   1.083       .  S
C1202      C1203   1.406       .  A
C1203      C1204   1.407       .  A
C1203      H1213   1.084       .  S
C1204      C1205   1.406       .  A
C1205      H1214   1.085       .  S
C1206      C1207   1.407       .  A
C1206      H1215   1.084       .  S
C1207      C1208   1.408       .  A
C1208      H1216   1.084       .  S
C1217      C1218   1.400       .  A
C1217      C1222   1.405       .  A
C1217      H1233   1.083       .  S
C1218      C1219   1.404       .  A
C1218      H1234   1.083       .  S
C1219      C1229   1.407       .  A
C1219      C1220   1.413       .  A
C1220      C1226   1.411       .  A
C1220      C1221   1.417       .  A
C1221      C1223   1.414       .  A
C1221      C1222   1.410       .  A
C1222      C1230   1.405       .  A
C1223      C1232   1.411       .  A
C1223      C1224   1.404       .  A
C1224      C1225   1.402       .  A
C1224      H1235   1.083       .  S
C1225      C1226   1.405       .  A
C1225      H1236   1.084       .  S
C1226      C1227   1.408       .  A
C1227      C1228   1.408       .  A
C1227      H1237   1.085       .  S
C1228      C1229   1.405       .  A
C1229      H1238   1.084       .  S
C1230      C1231   1.410       .  A
C1230      H1239   1.084       .  S
C1231      C1232   1.407       .  A
C1232      H1240   1.084       .  S
C1241      C1242   1.398       .  A
C1241      C1246   1.403       .  A
C1241      H1257   1.084       .  S
C1242      C1243   1.403       .  A
C1242      H1258   1.083       .  S
C1243      C1253   1.403       .  A
C1243      C1244   1.412       .  A
C1244      C1250   1.413       .  A
C1244      C1245   1.416       .  A
C1245      C1247   1.412       .  A
C1245      C1246   1.412       .  A
C1246      C1254   1.403       .  A
C1247      C1256   1.410       .  A
C1247      C1248   1.406       .  A
C1248      C1249   1.403       .  A
C1248      H1259   1.084       .  S
C1249      C1250   1.405       .  A
C1249      H1260   1.083       .  S
C1250      C1251   1.410       .  A
C1251      C1252   1.407       .  A
C1251      H1261   1.083       .  S
C1252      C1253   1.404       .  A
C1253      H1262   1.085       .  S
C1254      C1255   1.404       .  A
C1254      H1263   1.085       .  S
C1255      C1256   1.410       .  A
C1256      H1264   1.085       .  S
C1265      C1266   1.401       .  A
C1265      C1270   1.405       .  A
C1265      H1281   1.084       .  S
C1266      C1267   1.404       .  A
C1266      H1282   1.084       .  S
C1267      C1277   1.407       .  A
C1267      C1268   1.413       .  A
C1268      C1274   1.411       .  A
C1268      C1269   1.414       .  A
C1269      C1271   1.413       .  A
C1269      C1270   1.411       .  A
C1270      C1278   1.406       .  A
C1271      C1280   1.406       .  A
C1271      C1272   1.403       .  A
C1272      C1273   1.400       .  A
C1272      H1283   1.083       .  S
C1273      C1274   1.404       .  A
C1273      H1284   1.083       .  S
C1274      C1275   1.403       .  A
C1275      C1276   1.405       .  A
C1275      H1285   1.084       .  S
C1276      C1277   1.406       .  A
C1277      H1286   1.085       .  S
C1278      C1279   1.407       .  A
C1278      H1287   1.084       .  S
C1279      C1280   1.404       .  A
C1280      H1288   1.084       .  S
C1289      C1290   1.401       .  A
C1289      C1294   1.404       .  A
C1289      H1305   1.083       .  S
C1290      C1291   1.404       .  A
C1290      H1306   1.083       .  S
C1291      C1301   1.405       .  A
C1291      C1292   1.412       .  A
C1292      C1298   1.412       .  A
C1292      C1293   1.413       .  A
C1293      C1295   1.412       .  A
C1293      C1294   1.412       .  A
C1294      C1302   1.406       .  A
C1295      C1304   1.404       .  A
C1295      C1296   1.403       .  A
C1296      C1297   1.399       .  A
C1296      H1307   1.084       .  S
C1297      C1298   1.404       .  A
C1297      H1308   1.084       .  S
C1298      C1299   1.403       .  A
C1299      C1300   1.405       .  A
C1299      H1309   1.085       .  S
C1300      C1301   1.406       .  A
C1301      H1310   1.084       .  S
C1302      C1303   1.407       .  A
C1302      H1311   1.084       .  S
C1303      C1304   1.405       .  A
C1304      H1312   1.084       .  S
C1313      C1314   1.398       .  A
C1313      C1318   1.403       .  A
C1313      H1329   1.083       .  S
C1314      C1315   1.403       .  A
C1314      H1330   1.084       .  S
C1315      C1325   1.400       .  A
C1315      C1316   1.411       .  A
C1316      C1322   1.413       .  A
C1316      C1317   1.412       .  A
C1317      C1319   1.411       .  A
C1317      C1318   1.412       .  A
C1318      C1326   1.403       .  A
C1319      C1328   1.404       .  A
C1319      C1320   1.404       .  A
C1320      C1321   1.400       .  A
C1320      H1331   1.083       .  S
C1321      C1322   1.403       .  A
C1321      H1332   1.084       .  S
C1322      C1323   1.405       .  A
C1323      C1324   1.404       .  A
C1323      H1333   1.084       .  S
C1324      C1325   1.405       .  A
C1325      H1334   1.084       .  S
C1326      C1327   1.406       .  A
C1326      H1335   1.084       .  S
C1327      C1328   1.409       .  A
C1328      H1336   1.084       .  S
C1337      C1338   1.402       .  A
C1337      C1342   1.405       .  A
C1337      H1353   1.083       .  S
C1338      C1339   1.405       .  A
C1338      H1354   1.084       .  S
C1339      C1349   1.408       .  A
C1339      C1340   1.412       .  A
C1340      C1346   1.412       .  A
C1340      C1341   1.414       .  A
C1341      C1343   1.411       .  A
C1341      C1342   1.412       .  A
C1342      C1350   1.408       .  A
C1343      C1352   1.402       .  A
C1343      C1344   1.403       .  A
C1344      C1345   1.398       .  A
C1344      H1355   1.083       .  S
C1345      C1346   1.403       .  A
C1345      H1356   1.083       .  S
C1346      C1347   1.403       .  A
C1347      C1348   1.403       .  A
C1347      H1357   1.084       .  S
C1348      C1349   1.408       .  A
C1349      H1358   1.085       .  S
C1350      C1351   1.410       .  A
C1350      H1359   1.084       .  S
C1351      C1352   1.405       .  A
C1352      H1360   1.084       .  S
C1361      C1362   1.397   1_554  A
C1361      C1366   1.404       .  A
C1361      H1377   1.080       .  S
C1362      C1363   1.403       .  A
C1362      H1378   1.085       .  S
C1363      C1373   1.401       .  A
C1363      C1364   1.408       .  A
C1364      C1370   1.410       .  A
C1364      C1365   1.417   1_556  A
C1365      C1367   1.410       .  A
C1365      C1366   1.408       .  A
C1366      C1374   1.403       .  A
C1367      C1376   1.413       .  A
C1367      C1368   1.407       .  A
C1368      C1369   1.404   1_554  A
C1368      H1379   1.078       .  S
C1369      C1370   1.405       .  A
C1369      H1380   1.091       .  S
C1370      C1371   1.411       .  A
C1371      C1372   1.415       .  A
C1371      H1381   1.089       .  S
C1372      C1373   1.415       .  A
C1373      H1382   1.079       .  S
C1374      C1375   1.415       .  A
C1374      H1383   1.066       .  S
C1375      C1376   1.416       .  A
C1376      H1384   1.077       .  S
C1385      C1386   1.401       .  A
C1385      C1390   1.404       .  A
C1385      H1401   1.083       .  S
C1386      C1387   1.404       .  A
C1386      H1402   1.083       .  S
C1387      C1397   1.404       .  A
C1387      C1388   1.411       .  A
C1388      C1394   1.413       .  A
C1388      C1389   1.413       .  A
C1389      C1391   1.411       .  A
C1389      C1390   1.414       .  A
C1390      C1398   1.408       .  A
C1391      C1400   1.401       .  A
C1391      C1392   1.404       .  A
C1392      C1393   1.399       .  A
C1392      H1403   1.083       .  S
C1393      C1394   1.403       .  A
C1393      H1404   1.084       .  S
C1394      C1395   1.403       .  A
C1395      C1396   1.404       .  A
C1395      H1405   1.084       .  S
C1396      C1397   1.406       .  A
C1397      H1406   1.084       .  S
C1398      C1399   1.404       .  A
C1398      H1407   1.084       .  S
C1399      C1400   1.405       .  A
C1400      H1408   1.085       .  S
C1409      C1410   1.401       .  A
C1409      C1414   1.404       .  A
C1409      H1425   1.083       .  S
C1410      C1411   1.404       .  A
C1410      H1426   1.084       .  S
C1411      C1421   1.406       .  A
C1411      C1412   1.412       .  A
C1412      C1418   1.411       .  A
C1412      C1413   1.413       .  A
C1413      C1415   1.412       .  A
C1413      C1414   1.412       .  A
C1414      C1422   1.406       .  A
C1415      C1424   1.402   1_455  A
C1415      C1416   1.403       .  A
C1416      C1417   1.398       .  A
C1416      H1427   1.084   1_455  S
C1417      C1418   1.403       .  A
C1417      H1428   1.083       .  S
C1418      C1419   1.402       .  A
C1419      C1420   1.406       .  A
C1419      H1429   1.084       .  S
C1420      C1421   1.408       .  A
C1421      H1430   1.085       .  S
C1422      C1423   1.405   1_455  A
C1422      H1431   1.083       .  S
C1423      C1424   1.405       .  A
C1424      H1432   1.085       .  S
C1433      C1434   1.406   1_556  A
C1433      C1438   1.407       .  A
C1433      H1449   1.083       .  S
C1434      C1435   1.406       .  A
C1434      H1450   1.083       .  S
C1435      C1445   1.415       .  A
C1435      C1436   1.411       .  A
C1436      C1442   1.409       .  A
C1436      C1437   1.419   1_554  A
C1437      C1439   1.409       .  A
C1437      C1438   1.411       .  A
C1438      C1446   1.415       .  A
C1439      C1448   1.402       .  A
C1439      C1440   1.403       .  A
C1440      C1441   1.398   1_556  A
C1440      H1451   1.084   1_655  S
C1441      C1442   1.403       .  A
C1441      H1452   1.083       .  S
C1442      C1443   1.402       .  A
C1443      C1444   1.413       .  A
C1443      H1453   1.082       .  S
C1444      C1445   1.414       .  A
C1445      H1454   1.081       .  S
C1446      C1447   1.415       .  A
C1446      H1455   1.078       .  S
C1447      C1448   1.413       .  A
C1448      H1456   1.083       .  S
C1457      C1458   1.400       .  A
C1457      C1462   1.404       .  A
C1457      H1473   1.084       .  S
C1458      C1459   1.404       .  A
C1458      H1474   1.083       .  S
C1459      C1469   1.406       .  A
C1459      C1460   1.412       .  A
C1460      C1466   1.412       .  A
C1460      C1461   1.415       .  A
C1461      C1463   1.412       .  A
C1461      C1462   1.411       .  A
C1462      C1470   1.404       .  A
C1463      C1472   1.408       .  A
C1463      C1464   1.404       .  A
C1464      C1465   1.401       .  A
C1464      H1475   1.084       .  S
C1465      C1466   1.405       .  A
C1465      H1476   1.083       .  S
C1466      C1467   1.407       .  A
C1467      C1468   1.408       .  A
C1467      H1477   1.084       .  S
C1468      C1469   1.406       .  A
C1469      H1478   1.083       .  S
C1470      C1471   1.407       .  A
C1470      H1479   1.084       .  S
C1471      C1472   1.407       .  A
C1472      H1480   1.084       .  S
C1481      C1482   1.403       .  A
C1481      C1486   1.405       .  A
C1481      H1497   1.084       .  S
C1482      C1483   1.406       .  A
C1482      H1498   1.083       .  S
C1483      C1493   1.410       .  A
C1483      C1484   1.411       .  A
C1484      C1490   1.411       .  A
C1484      C1485   1.415       .  A
C1485      C1487   1.410       .  A
C1485      C1486   1.413       .  A
C1486      C1494   1.411   1_455  A
C1487      C1496   1.400       .  A
C1487      C1488   1.403       .  A
C1488      C1489   1.397       .  A
C1488      H1499   1.084       .  S
C1489      C1490   1.403       .  A
C1489      H1500   1.083       .  S
C1490      C1491   1.402       .  A
C1491      C1492   1.409       .  A
C1491      H1501   1.083       .  S
C1492      C1493   1.412       .  A
C1493      H1502   1.083       .  S
C1494      C1495   1.408       .  A
C1494      H1503   1.084       .  S
C1495      C1496   1.408   1_655  A
C1496      H1504   1.084   1_455  S
C1505      C1506   1.399       .  A
C1505      C1510   1.403       .  A
C1505      H1521   1.083       .  S
C1506      C1507   1.404       .  A
C1506      H1522   1.084       .  S
C1507      C1517   1.402       .  A
C1507      C1508   1.408   1_545  A
C1508      C1514   1.413       .  A
C1508      C1509   1.416       .  A
C1509      C1511   1.409       .  A
C1509      C1510   1.412   1_565  A
C1510      C1518   1.405   1_645  A
C1511      C1520   1.407       .  A
C1511      C1512   1.406       .  A
C1512      C1513   1.403       .  A
C1512      H1523   1.084       .  S
C1513      C1514   1.405       .  A
C1513      H1524   1.083       .  S
C1514      C1515   1.412       .  A
C1515      C1516   1.410       .  A
C1515      H1525   1.083       .  S
C1516      C1517   1.412   1_565  A
C1517      H1526   1.083       .  S
C1518      C1519   1.407       .  A
C1518      H1527   1.079   1_565  S
C1519      C1520   1.414   1_455  A
C1520      H1528   1.084   1_655  S
C1529      C1530   1.399       .  A
C1529      C1534   1.403       .  A
C1529      H1545   1.083       .  S
C1530      C1531   1.404       .  A
C1530      H1546   1.084       .  S
C1531      C1541   1.403       .  A
C1531      C1532   1.410       .  A
C1532      C1538   1.413       .  A
C1532      C1533   1.417       .  A
C1533      C1535   1.411       .  A
C1533      C1534   1.412       .  A
C1534      C1542   1.406       .  A
C1535      C1544   1.411       .  A
C1535      C1536   1.406       .  A
C1536      C1537   1.404       .  A
C1536      H1547   1.083       .  S
C1537      C1538   1.405       .  A
C1537      H1548   1.084       .  S
C1538      C1539   1.412       .  A
C1539      C1540   1.410       .  A
C1539      H1549   1.084       .  S
C1540      C1541   1.409       .  A
C1541      H1550   1.084       .  S
C1542      C1543   1.409       .  A
C1542      H1551   1.083       .  S
C1543      C1544   1.414       .  A
C1544      H1552   1.084       .  S
C1553      C1554   1.399       .  A
C1553      C1558   1.403       .  A
C1553      H1569   1.083       .  S
C1554      C1555   1.403       .  A
C1554      H1570   1.083       .  S
C1555      C1565   1.405       .  A
C1555      C1556   1.412       .  A
C1556      C1562   1.412       .  A
C1556      C1557   1.416       .  A
C1557      C1559   1.412       .  A
C1557      C1558   1.411       .  A
C1558      C1566   1.403       .  A
C1559      C1568   1.410       .  A
C1559      C1560   1.405       .  A
C1560      C1561   1.403       .  A
C1560      H1571   1.084       .  S
C1561      C1562   1.405       .  A
C1561      H1572   1.083       .  S
C1562      C1563   1.409       .  A
C1563      C1564   1.409       .  A
C1563      H1573   1.084       .  S
C1564      C1565   1.407       .  A
C1565      H1574   1.084       .  S
C1566      C1567   1.405       .  A
C1566      H1575   1.084       .  S
C1567      C1568   1.408       .  A
C1568      H1576   1.084       .  S
C1577      C1578   1.396       .  A
C1577      C1582   1.403       .  A
C1577      H1593   1.084       .  S
C1578      C1579   1.403       .  A
C1578      H1594   1.084       .  S
C1579      C1589   1.400       .  A
C1579      C1580   1.409       .  A
C1580      C1586   1.411   1_565  A
C1580      C1581   1.417       .  A
C1581      C1583   1.410   1_565  A
C1581      C1582   1.409       .  A
C1582      C1590   1.400       .  A
C1583      C1592   1.413       .  A
C1583      C1584   1.407       .  A
C1584      C1585   1.406       .  A
C1584      H1595   1.083       .  S
C1585      C1586   1.406       .  A
C1585      H1596   1.083       .  S
C1586      C1587   1.414       .  A
C1587      C1588   1.414   1_545  A
C1587      H1597   1.080       .  S
C1588      C1589   1.411       .  A
C1589      H1598   1.081       .  S
C1590      C1591   1.413   1_655  A
C1590      H1599   1.081   1_655  S
C1591      C1592   1.416   1_465  A
C1592      H1600   1.081   1_655  S
C1601      C1602   1.400       .  A
C1601      C1606   1.404       .  A
C1601      H1617   1.083       .  S
C1602      C1603   1.404       .  A
C1602      H1618   1.083       .  S
C1603      C1613   1.407       .  A
C1603      C1604   1.412       .  A
C1604      C1610   1.411       .  A
C1604      C1605   1.414       .  A
C1605      C1607   1.412       .  A
C1605      C1606   1.412       .  A
C1606      C1614   1.405       .  A
C1607      C1616   1.405       .  A
C1607      C1608   1.404       .  A
C1608      C1609   1.400       .  A
C1608      H1619   1.084       .  S
C1609      C1610   1.404       .  A
C1609      H1620   1.084       .  S
C1610      C1611   1.404       .  A
C1611      C1612   1.409       .  A
C1611      H1621   1.084       .  S
C1612      C1613   1.407       .  A
C1613      H1622   1.084       .  S
C1614      C1615   1.405       .  A
C1614      H1623   1.083       .  S
C1615      C1616   1.405       .  A
C1616      H1624   1.085       .  S
C1625      C1626   1.400       .  A
C1625      C1630   1.404       .  A
C1625      H1641   1.084       .  S
C1626      C1627   1.404       .  A
C1626      H1642   1.084       .  S
C1627      C1637   1.404       .  A
C1627      C1628   1.412       .  A
C1628      C1634   1.413       .  A
C1628      C1629   1.414       .  A
C1629      C1631   1.411       .  A
C1629      C1630   1.412       .  A
C1630      C1638   1.404       .  A
C1631      C1640   1.404       .  A
C1631      C1632   1.404       .  A
C1632      C1633   1.400       .  A
C1632      H1643   1.083       .  S
C1633      C1634   1.404       .  A
C1633      H1644   1.083       .  S
C1634      C1635   1.406       .  A
C1635      C1636   1.405       .  A
C1635      H1645   1.084       .  S
C1636      C1637   1.406       .  A
C1637      H1646   1.085       .  S
C1638      C1639   1.406       .  A
C1638      H1647   1.085       .  S
C1639      C1640   1.407       .  A
C1640      H1648   1.084       .  S
C1649      C1650   1.405   1_565  A
C1649      C1654   1.406       .  A
C1649      H1665   1.084       .  S
C1650      C1651   1.406       .  A
C1650      H1666   1.083       .  S
C1651      C1661   1.413       .  A
C1651      C1652   1.409   1_554  A
C1652      C1658   1.408       .  A
C1652      C1653   1.418   1_545  A
C1653      C1655   1.407       .  A
C1653      C1654   1.410   1_556  A
C1654      C1662   1.413       .  A
C1655      C1664   1.401       .  A
C1655      C1656   1.404       .  A
C1656      C1657   1.397   1_565  A
C1656      H1667   1.084       .  S
C1657      C1658   1.404       .  A
C1657      H1668   1.083       .  S
C1658      C1659   1.403       .  A
C1659      C1660   1.416       .  A
C1659      H1669   1.079       .  S
C1660      C1661   1.418   1_556  A
C1661      H1670   1.079       .  S
C1662      C1663   1.417   1_554  A
C1662      H1671   1.081       .  S
C1663      C1664   1.416       .  A
C1664      H1672   1.080       .  S
C1673      C1674   1.399       .  A
C1673      C1678   1.403       .  A
C1673      H1689   1.084       .  S
C1674      C1675   1.403       .  A
C1674      H1690   1.083       .  S
C1675      C1685   1.404       .  A
C1675      C1676   1.413       .  A
C1676      C1682   1.411       .  A
C1676      C1677   1.416       .  A
C1677      C1679   1.413       .  A
C1677      C1678   1.411       .  A
C1678      C1686   1.403       .  A
C1679      C1688   1.411       .  A
C1679      C1680   1.405       .  A
C1680      C1681   1.403       .  A
C1680      H1691   1.084       .  S
C1681      C1682   1.406       .  A
C1681      H1692   1.083       .  S
C1682      C1683   1.409       .  A
C1683      C1684   1.409       .  A
C1683      H1693   1.083       .  S
C1684      C1685   1.403       .  A
C1685      H1694   1.084       .  S
C1686      C1687   1.405       .  A
C1686      H1695   1.085       .  S
C1687      C1688   1.409       .  A
C1688      H1696   1.084       .  S
C1697      C1698   1.402       .  A
C1697      C1702   1.405       .  A
C1697      H1713   1.083       .  S
C1698      C1699   1.405       .  A
C1698      H1714   1.083       .  S
C1699      C1709   1.409       .  A
C1699      C1700   1.412       .  A
C1700      C1706   1.412       .  A
C1700      C1701   1.417       .  A
C1701      C1703   1.411       .  A
C1701      C1702   1.413       .  A
C1702      C1710   1.411       .  A
C1703      C1712   1.405       .  A
C1703      C1704   1.404       .  A
C1704      C1705   1.400       .  A
C1704      H1715   1.084       .  S
C1705      C1706   1.404       .  A
C1705      H1716   1.084       .  S
C1706      C1707   1.406       .  A
C1707      C1708   1.406       .  A
C1707      H1717   1.085       .  S
C1708      C1709   1.407       .  A
C1709      H1718   1.084       .  S
C1710      C1711   1.409       .  A
C1710      H1719   1.083       .  S
C1711      C1712   1.410       .  A
C1712      H1720   1.084       .  S
C1721      C1722   1.403       .  A
C1721      C1726   1.405   1_565  A
C1721      H1737   1.084   1_565  S
C1722      C1723   1.406       .  A
C1722      H1738   1.083       .  S
C1723      C1733   1.409       .  A
C1723      C1724   1.410   1_554  A
C1724      C1730   1.411       .  A
C1724      C1725   1.417       .  A
C1725      C1727   1.409   1_565  A
C1725      C1726   1.412   1_566  A
C1726      C1734   1.411       .  A
C1727      C1736   1.403       .  A
C1727      C1728   1.404   1_545  A
C1728      C1729   1.400       .  A
C1728      H1739   1.083       .  S
C1729      C1730   1.404       .  A
C1729      H1740   1.084       .  S
C1730      C1731   1.406       .  A
C1731      C1732   1.411       .  A
C1731      H1741   1.083       .  S
C1732      C1733   1.411   1_556  A
C1733      H1742   1.078       .  S
C1734      C1735   1.410   1_554  A
C1734      H1743   1.082       .  S
C1735      C1736   1.413       .  A
C1736      H1744   1.083       .  S
C1745      C1746   1.401       .  A
C1745      C1750   1.405       .  A
C1745      H1761   1.083       .  S
C1746      C1747   1.403       .  A
C1746      H1762   1.083       .  S
C1747      C1757   1.409       .  A
C1747      C1748   1.414       .  A
C1748      C1754   1.410       .  A
C1748      C1749   1.416       .  A
C1749      C1751   1.413       .  A
C1749      C1750   1.409       .  A
C1750      C1758   1.405       .  A
C1751      C1760   1.409       .  A
C1751      C1752   1.404       .  A
C1752      C1753   1.401       .  A
C1752      H1763   1.083       .  S
C1753      C1754   1.405       .  A
C1753      H1764   1.084       .  S
C1754      C1755   1.404       .  A
C1755      C1756   1.408       .  A
C1755      H1765   1.085       .  S
C1756      C1757   1.404       .  A
C1757      H1766   1.084       .  S
C1758      C1759   1.411       .  A
C1758      H1767   1.084       .  S
C1759      C1760   1.410       .  A
C1760      H1768   1.083       .  S
C1769      C1770   1.400       .  A
C1769      C1774   1.404       .  A
C1769      H1785   1.083       .  S
C1770      C1771   1.403       .  A
C1770      H1786   1.084       .  S
C1771      C1781   1.405       .  A
C1771      C1772   1.412       .  A
C1772      C1778   1.411       .  A
C1772      C1773   1.415       .  A
C1773      C1775   1.412       .  A
C1773      C1774   1.410       .  A
C1774      C1782   1.404       .  A
C1775      C1784   1.408       .  A
C1775      C1776   1.404       .  A
C1776      C1777   1.401       .  A
C1776      H1787   1.083       .  S
C1777      C1778   1.405       .  A
C1777      H1788   1.084       .  S
C1778      C1779   1.406       .  A
C1779      C1780   1.408       .  A
C1779      H1789   1.085       .  S
C1780      C1781   1.406       .  A
C1781      H1790   1.084       .  S
C1782      C1783   1.411       .  A
C1782      H1791   1.083       .  S
C1783      C1784   1.409       .  A
C1784      H1792   1.083       .  S
