geometry optimzed in LAMMPS
_audit_creation_date              2020-11-30 
_audit_creation_method            'lammps2cif' 
_symmetry_space_group_name_H-M    'P1' 
_symmetry_Int_Tables_number       1 
_symmetry_cell_setting            triclinic 
loop_ 
_symmetry_equiv_pos_as_xyz 
  x,y,z 
_cell_length_a                    25.0278542 
_cell_length_b                    25.02135126457757 
_cell_length_c                    25.00181602779887 
_cell_angle_alpha                 87.98236312210382 
_cell_angle_beta                  93.22330383138684 
_cell_angle_gamma                 93.49264239552511 
loop_ 
_atom_site_label 
_atom_site_type_symbol 
_atom_site_fract_x 
_atom_site_fract_y 
_atom_site_fract_z 
_atom_site_charge 
C1          C  0.35470887  0.89912076  0.99954022     0.80100
N2          N  0.32664023  0.88716334  0.04327722    -0.78200
C3          C  0.27477416  0.86833545  0.03974640     0.82600
N4          N  0.24919030  0.86109805  0.98996444    -0.78100
C5          C  0.27817486  0.87200279  0.94510794     0.82700
N6          N  0.32989419  0.89073101  0.95105776    -0.79800
C7          C  0.69029043  0.22003500  0.02770863     0.80100
N8          N  0.69927554  0.24725599  0.07260512    -0.78200
C9          C  0.71752541  0.29909541  0.07232137     0.82600
N10         N  0.72808883  0.32491770  0.02407261    -0.78100
C11         C  0.72047644  0.29606720  0.97768418     0.82700
N12         N  0.70114568  0.24422554  0.98028265    -0.79800
C13         C  0.78711443  0.07517888  0.37775534     0.80100
N14         N  0.77448481  0.12377687  0.35774246    -0.78200
C15         C  0.75186201  0.13080239  0.30760458     0.82600
N16         N  0.74202448  0.08706560  0.27543156    -0.78100
C17         C  0.75573948  0.03747172  0.29582871     0.82700
N18         N  0.77764913  0.03301615  0.34611807    -0.79800
C19         C  0.11036779  0.09717106  0.68232338     0.80100
N20         N  0.13793129  0.05258613  0.69027675    -0.78200
C21         C  0.18756863  0.05497997  0.71526109     0.82600
N22         N  0.21003421  0.10346677  0.73248311    -0.78100
C23         C  0.18114792  0.14843159  0.72437008     0.82700
N24         N  0.13182606  0.14428169  0.69994195    -0.79800
C25         C  0.96512817  0.78593012  0.12581250     0.80100
N26         N  0.01515380  0.79612962  0.14720211    -0.78200
C27         C  0.02354355  0.81766924  0.19599570     0.82600
N28         N  0.98021596  0.82966200  0.22427249    -0.78100
C29         C  0.92912698  0.81988364  0.20170199     0.82700
N30         N  0.92253902  0.79799464  0.15282838    -0.79800
C31         C  0.98565185  0.46402281  0.80986549     0.80100
N32         N  0.02868404  0.44111212  0.79299539    -0.78200
C33         C  0.02491737  0.39099719  0.77371892     0.82600
N34         N  0.97623578  0.36207592  0.77145094    -0.78100
C35         C  0.93209591  0.38613541  0.78740309     0.82700
N36         N  0.93801363  0.43598258  0.80631539    -0.79800
C37         C  0.61629720  0.88404304  0.99080925     0.80100
N38         N  0.64221155  0.87455617  0.03858028    -0.78200
C39         C  0.69367642  0.86124527  0.04306996     0.82600
N40         N  0.72136091  0.85669319  0.99749032    -0.78100
C41         C  0.69477720  0.86558216  0.94844660     0.82700
N42         N  0.64306216  0.87919276  0.94627336    -0.79800
C43         C  0.28036994  0.23145124  0.00161686     0.80100
N44         N  0.27037100  0.25042977  0.04944066    -0.78200
C45         C  0.24530853  0.29661819  0.05317024     0.82600
N46         N  0.23036835  0.32491863  0.00686810    -0.78100
C47         C  0.24105820  0.30480064  0.95810528     0.82700
N48         N  0.26578343  0.25852059  0.95648446    -0.79800
C49         C  0.75925006  0.10908144  0.64450232     0.80100
N50         N  0.75080316  0.15094859  0.67462308    -0.78200
C51         C  0.74261409  0.14519109  0.72759917     0.82600
N52         N  0.74278763  0.09472505  0.75215655    -0.78100
C53         C  0.75017757  0.05154705  0.72082288     0.82700
N54         N  0.75834597  0.06005567  0.66824577    -0.79800
C55         C  0.13146717  0.06612924  0.32571318     0.80100
N56         N  0.15079253  0.11694517  0.31772612    -0.78200
C57         C  0.19365079  0.12838218  0.28773744     0.82600
N58         N  0.21767164  0.08717651  0.26490715    -0.78100
C59         C  0.19713961  0.03537586  0.27329036     0.82700
N60         N  0.15419974  0.02587892  0.30325253    -0.79800
C61         C  0.97654724  0.73349240  0.78868703     0.80100
N62         N  0.02449363  0.75747249  0.77790427    -0.78200
C63         C  0.02991552  0.81035100  0.76405934     0.82600
N64         N  0.98533496  0.84090655  0.76075010    -0.78100
C65         C  0.93623005  0.81595522  0.77166035     0.82700
N66         N  0.93358291  0.76339340  0.78534530    -0.79800
C67         C  0.97848768  0.40543910  0.16343776     0.80100
N68         N  0.02406729  0.38616149  0.18364730    -0.78200
C69         C  0.02690108  0.35782834  0.23066140     0.82600
N70         N  0.98076762  0.34757699  0.25838036    -0.78100
C71         C  0.93348065  0.36782044  0.23683264     0.82700
N72         N  0.93370293  0.39637505  0.18976058    -0.79800
C73         C  0.34546142  0.60760850  0.81321608     0.80100
N74         N  0.32307110  0.65320570  0.79723809    -0.78200
C75         C  0.27465448  0.65283530  0.76989020     0.82600
N76         N  0.24783733  0.60410830  0.75813632    -0.78100
C77         C  0.27151910  0.55735698  0.77534344     0.82700
N78         N  0.31976554  0.56059765  0.80226128    -0.79800
C79         C  0.25955318  0.59040608  0.12849401     0.80100
N80         N  0.25346791  0.54329484  0.15577569    -0.78200
C81         C  0.24018576  0.54001375  0.20742215     0.82600
N82         N  0.23160085  0.58629109  0.23363050    -0.78100
C83         C  0.23577538  0.63467577  0.20523391     0.82700
N84         N  0.25004860  0.63535301  0.15367620    -0.79800
C85         C  0.19615922  0.46387080  0.48984883     0.80100
N86         N  0.20912554  0.43616424  0.44806010    -0.78200
C87         C  0.22545370  0.38582509  0.45486429     0.82600
N88         N  0.22878012  0.36212431  0.50558727    -0.78100
C89         C  0.21597950  0.39132889  0.54845413     0.82700
N90         N  0.19913803  0.44142067  0.53940111    -0.79800
Zn91       Zn  0.18488375  0.40927275  0.71621957     1.49700
Zn92       Zn  0.25634400  0.30857055  0.70393413     1.49400
Zn93       Zn  0.27950470  0.38513745  0.80670326     1.49100
Zn94       Zn  0.17119216  0.30492415  0.79531059     1.49500
O95         O  0.22305138  0.35211031  0.75601228    -1.84200
O96         O  0.19398814  0.40131623  0.63737367    -0.74800
O97         O  0.33346102  0.31506462  0.72409073    -0.74700
O98         O  0.27539271  0.46530337  0.79532949    -0.74200
O99         O  0.24461190  0.33370387  0.62387344    -0.74900
O100        O  0.21209362  0.48746264  0.73420989    -0.74500
O101        O  0.35910507  0.36443777  0.79360538    -0.75000
O102        O  0.19259490  0.30540836  0.87511475    -0.74400
O103        O  0.23494068  0.22859230  0.71089778    -0.75200
O104        O  0.26360994  0.36316659  0.88498861    -0.74600
O105        O  0.17272855  0.22762986  0.77103752    -0.75000
O106        O  0.09407381  0.32943779  0.78560356    -0.75000
O107        O  0.10672835  0.40218064  0.73284320    -0.74700
C108        C  0.21790965  0.37290392  0.60576713     0.77000
C109        C  0.37046922  0.33415300  0.75624526     0.77100
C110        C  0.25024275  0.50096386  0.76783001     0.76500
C111        C  0.22905320  0.32940199  0.90474397     0.76900
C112        C  0.19990621  0.20333622  0.73865895     0.78000
C113        C  0.07648334  0.37074561  0.76079339     0.77100
C114        C  0.84800533  0.38142203  0.53324908     0.80100
N115        N  0.82430781  0.36695485  0.48584288    -0.78200
C116        C  0.77142290  0.35215444  0.48023040     0.82600
N117        N  0.74047217  0.35067284  0.52434109    -0.78100
C118        C  0.76502917  0.36382552  0.57327280     0.82700
N119        N  0.81780158  0.37936667  0.57626079    -0.79800
C120        C  0.46612755  0.26112492  0.68813375     0.80100
N121        N  0.51420717  0.27917980  0.70804627    -0.78200
C122        C  0.51987403  0.31502718  0.74767999     0.82600
N123        N  0.47445530  0.33497072  0.76725777    -0.78100
C124        C  0.42473930  0.31603046  0.74601075     0.82700
N125        N  0.42233680  0.27976835  0.70690743    -0.79800
Zn126      Zn  0.76630582  0.40529550  0.73834693     1.49700
Zn127      Zn  0.68709665  0.30496291  0.71930019     1.49400
Zn128      Zn  0.77795723  0.29571014  0.81479403     1.49100
Zn129      Zn  0.67710695  0.37651536  0.82353519     1.49500
O130        O  0.72739685  0.34520396  0.77517290    -1.84200
O131        O  0.76079333  0.39686065  0.65891724    -0.74800
O132        O  0.70146463  0.22638134  0.72726234    -0.74700
O133        O  0.85795918  0.32227789  0.80454380    -0.74200
O134        O  0.70667057  0.32562389  0.64075957    -0.74900
O135        O  0.84408269  0.39755953  0.75699930    -0.74500
O136        O  0.76751804  0.21626879  0.78919067    -0.75000
O137        O  0.69379229  0.34978224  0.90140920    -0.74400
O138        O  0.61012117  0.31234819  0.73080339    -0.75200
O139        O  0.76129548  0.29623298  0.89464574    -0.74600
O140        O  0.59471697  0.35854466  0.80194771    -0.75000
O141        O  0.69330442  0.45705339  0.82191644    -0.75000
O142        O  0.74987832  0.48212335  0.75919252    -0.74700
C143        C  0.73971538  0.36321272  0.62568032     0.77000
C144        C  0.73463070  0.19685573  0.75284830     0.77500
C145        C  0.87573036  0.36529639  0.78070872     0.76500
C146        C  0.72774608  0.31808303  0.92268483     0.76900
C147        C  0.57737835  0.33100007  0.76172718     0.78000
C148        C  0.72080270  0.49371309  0.79689446     0.77100
C149        C  0.10724228  0.79965506  0.48695733     0.80100
N150        N  0.13421001  0.80617668  0.44177480    -0.78200
C151        C  0.18505430  0.82803302  0.44147420     0.82600
N152        N  0.21074745  0.84389130  0.48914425    -0.78100
C153        C  0.18324220  0.83728643  0.53555865     0.82700
N154        N  0.13241188  0.81536364  0.53321024    -0.79800
Zn155      Zn  0.18899556  0.89455661  0.78819170     1.49700
Zn156      Zn  0.19010540  0.79598462  0.70615110     1.49400
Zn157      Zn  0.26413361  0.90607271  0.68240253     1.49100
Zn158      Zn  0.29439758  0.82578670  0.78049175     1.49500
O159        O  0.23408769  0.85617909  0.73904160    -1.84200
O160        O  0.10828362  0.86961980  0.77990222    -0.74800
O161        O  0.18910371  0.80937240  0.62594677    -0.74700
O162        O  0.24029985  0.98306424  0.69328153    -0.74200
O163        O  0.11311747  0.80030479  0.72744653    -0.74900
O164        O  0.19176686  0.97400010  0.76576653    -0.74500
O165        O  0.23698886  0.88433055  0.60509248    -0.75000
O166        O  0.37010773  0.84746999  0.75255869    -0.74400
O167        O  0.21481665  0.71796042  0.72624730    -0.75200
O168        O  0.34589992  0.90255651  0.68512120    -0.74600
O169        O  0.28547249  0.74592013  0.77706788    -0.75000
O170        O  0.29057364  0.84384965  0.85842795    -0.75000
O171        O  0.21530841  0.88452233  0.86897554    -0.74700
C172        C  0.08584386  0.83003267  0.75473921     0.77000
C173        C  0.20654569  0.84381597  0.59112027     0.77500
C174        C  0.21097018  0.00264399  0.72725146     0.76500
C175        C  0.38223103  0.87799349  0.71249285     0.76900
C176        C  0.25595512  0.70773410  0.75658647     0.78000
C177        C  0.25838269  0.86461215  0.88855280     0.77100
C178        C  0.69493528  0.59652010  0.89118066     0.80100
N179        N  0.70499534  0.55048895  0.86837525    -0.78200
C180        C  0.71981260  0.54880432  0.81733480     0.82600
N181        N  0.72584540  0.59587917  0.78735183    -0.78100
C182        C  0.71607294  0.64333844  0.81049546     0.82700
N183        N  0.70017502  0.64245272  0.86147270    -0.79800
C184        C  0.49066755  0.91413698  0.62148324     0.80100
N185        N  0.44273545  0.90852233  0.64388231    -0.78200
C186        C  0.43794200  0.88398257  0.69309071     0.82600
N187        N  0.48302802  0.86465979  0.72028887    -0.78100
C188        C  0.53167340  0.87109412  0.69661334     0.82700
N189        N  0.53377660  0.89529774  0.64775169    -0.79800
C190        C  0.77569451  0.71801228  0.51013297     0.80100
N191        N  0.77100867  0.74221458  0.46145191    -0.78200
C192        C  0.75249220  0.79200520  0.45507865     0.82600
N193        N  0.73979024  0.81909901  0.49968727    -0.78100
C194        C  0.74627209  0.79417384  0.54967485     0.82700
N195        N  0.76381053  0.74404480  0.55331247    -0.79800
Zn196      Zn  0.78265415  0.89247525  0.79975647     1.49700
Zn197      Zn  0.77154973  0.78954246  0.72124384     1.49400
Zn198      Zn  0.67271238  0.80867187  0.78855009     1.49100
Zn199      Zn  0.70341037  0.88566542  0.68927646     1.49500
O200        O  0.73310105  0.84510785  0.75095425    -1.84200
O201        O  0.86448383  0.87360809  0.79163844    -0.74800
O202        O  0.75429229  0.71316508  0.75257583    -0.74700
O203        O  0.68221527  0.83269281  0.86315887    -0.74200
O204        O  0.84965342  0.80687885  0.73503854    -0.74900
O205        O  0.75969657  0.87971099  0.87966055    -0.74500
O206        O  0.68235215  0.72879185  0.79612035    -0.75000
O207        O  0.62450829  0.87854733  0.69391069    -0.74400
O208        O  0.75826292  0.78901368  0.64265113    -0.75200
O209        O  0.59455851  0.82629196  0.76014999    -0.74600
O210        O  0.71997972  0.86177243  0.61140478    -0.75000
O211        O  0.72319878  0.96317044  0.70202556    -0.75000
O212        O  0.77134637  0.97423116  0.77905864    -0.74700
C213        C  0.88195088  0.83721068  0.76312983     0.77000
C214        C  0.71691101  0.69690912  0.78276344     0.77500
C215        C  0.71554597  0.85728526  0.89536789     0.76500
C216        C  0.58559793  0.85744142  0.71960008     0.76900
C217        C  0.74060955  0.81754687  0.60317025     0.78000
C218        C  0.74675554  0.99370329  0.73706459     0.77100
C219        C  0.47402428  0.22714282  0.32994914     0.80100
N220        N  0.42997751  0.25414532  0.31645842    -0.78200
C221        C  0.43253180  0.30212554  0.28963024     0.82600
N222        N  0.48161047  0.32506482  0.27643935    -0.78100
C223        C  0.52659758  0.29738444  0.28999744     0.82700
N224        N  0.52179573  0.24933100  0.31612959    -0.79800
Zn225      Zn  0.78907633  0.30277263  0.31738461     1.49700
Zn226      Zn  0.68586365  0.37660828  0.32235283     1.49400
Zn227      Zn  0.76287977  0.38857654  0.22017920     1.49100
Zn228      Zn  0.68697598  0.28111644  0.23883775     1.49500
O229        O  0.73120382  0.33789948  0.27498833    -1.84200
O230        O  0.78324192  0.32089026  0.39482218    -0.74800
O231        O  0.68922396  0.45637029  0.30014111    -0.74700
O232        O  0.84258862  0.38473705  0.23179921    -0.74200
O233        O  0.71015482  0.36587919  0.40339079    -0.74900
O234        O  0.86655345  0.32342934  0.29348824    -0.74500
O235        O  0.73962245  0.46580846  0.22915780    -0.75000
O236        O  0.69899865  0.29150801  0.16209301    -0.74400
O237        O  0.60614358  0.35139614  0.31080157    -0.75200
O238        O  0.74704738  0.36532673  0.13999018    -0.74600
O239        O  0.60822245  0.28820373  0.25058181    -0.75000
O240        O  0.70620950  0.20251771  0.25924362    -0.75000
O241        O  0.77701786  0.22244915  0.31360502    -0.74700
C242        C  0.75169090  0.34383270  0.42395055     0.77000
C243        C  0.70960280  0.48533955  0.26242419     0.77500
C244        C  0.87878594  0.35843381  0.25720109     0.76500
C245        C  0.72123779  0.32177075  0.12677999     0.76900
C246        C  0.58226104  0.31627452  0.28062124     0.78000
C247        C  0.74468647  0.18776976  0.29087420     0.77100
C248        C  0.49264150  0.96105216  0.27259077     0.80100
N249        N  0.44391662  0.93488533  0.26992872    -0.78200
C250        C  0.43699144  0.88262201  0.25719514     0.82600
N251        N  0.48105443  0.85448509  0.24761733    -0.78100
C252        C  0.53102838  0.88089993  0.25077616     0.82700
N253        N  0.53543100  0.93329436  0.26311939    -0.79800
C254        C  0.60979718  0.57989972  0.21601403     0.80100
N255        N  0.63492650  0.53491886  0.22976655    -0.78200
C256        C  0.68659782  0.53779499  0.24989664     0.82600
N257        N  0.71381508  0.58723180  0.25596978    -0.78100
C258        C  0.68718451  0.63276726  0.24202221     0.82700
N259        N  0.63591838  0.62769136  0.22244173    -0.79800
Zn260      Zn  0.77359148  0.89176529  0.20275283     1.49700
Zn261      Zn  0.69658699  0.87330275  0.30449369     1.49400
Zn262      Zn  0.67486725  0.80180000  0.20445776     1.49100
Zn263      Zn  0.77977863  0.78433670  0.28416744     1.49500
O264        O  0.73235566  0.83807295  0.24857847    -1.84200
O265        O  0.76737215  0.97071224  0.22961439    -0.74800
O266        O  0.61744889  0.87231962  0.28850864    -0.74700
O267        O  0.68763370  0.81600744  0.12590746    -0.74200
O268        O  0.71869586  0.95069015  0.30020037    -0.74900
O269        O  0.74701466  0.88586624  0.12232580    -0.74500
O270        O  0.59718266  0.82573784  0.21570910    -0.75000
O271        O  0.75274290  0.70466058  0.26945515    -0.74400
O272        O  0.71324606  0.84555769  0.38222055    -0.75200
O273        O  0.67891081  0.72353666  0.22078474    -0.74600
O274        O  0.77616797  0.79040499  0.36519529    -0.75000
O275        O  0.85714955  0.79702941  0.25857642    -0.75000
O276        O  0.85228247  0.87023288  0.20502436    -0.74700
C277        C  0.74416641  0.98492249  0.27092585     0.77000
C278        C  0.58332867  0.85551929  0.25234706     0.77500
C279        C  0.71401439  0.85187002  0.09905755     0.76500
C280        C  0.70891303  0.68944540  0.24434253     0.76900
C281        C  0.74773213  0.81232704  0.39840881     0.78000
C282        C  0.87863910  0.83180030  0.22626886     0.77100
Zn283      Zn  0.18910827  0.88619010  0.18783369     1.49700
Zn284      Zn  0.28371844  0.80332226  0.20236514     1.49400
Zn285      Zn  0.26903737  0.88335073  0.29654326     1.49100
Zn286      Zn  0.18101292  0.78366316  0.27402283     1.49500
O287        O  0.23001877  0.83937242  0.24024019    -1.84200
O288        O  0.21475113  0.88303036  0.10954289    -0.74800
O289        O  0.36284081  0.82402345  0.22493009    -0.74700
O290        O  0.24920545  0.96087659  0.28693089    -0.74200
O291        O  0.27779519  0.82456080  0.12376868    -0.74900
O292        O  0.19501885  0.96411870  0.21325489    -0.74500
O293        O  0.34905346  0.88335765  0.28608611    -0.75000
O294        O  0.18443121  0.79844187  0.35331435    -0.74400
O295        O  0.26789485  0.72405626  0.20730426    -0.75200
O296        O  0.24690224  0.86246880  0.37461194    -0.74600
O297        O  0.19816571  0.70371510  0.25700881    -0.75000
O298        O  0.10210311  0.79498202  0.24865202    -0.75000
O299        O  0.10908461  0.86230110  0.18822537    -0.74700
C300        C  0.25153441  0.85580419  0.09232380     0.77000
C301        C  0.38063329  0.86015752  0.25706289     0.77500
C302        C  0.21870352  0.98651630  0.25402489     0.76500
C303        C  0.20867940  0.82925598  0.38785014     0.76900
C304        C  0.23446807  0.68939001  0.22716506     0.78000
C305        C  0.08059248  0.82729982  0.21429998     0.77100
Zn306      Zn  0.26996182  0.27965486  0.22596375     1.49700
Zn307      Zn  0.19324939  0.37154106  0.19877383     1.49400
Zn308      Zn  0.17911210  0.30044638  0.30909060     1.49100
Zn309      Zn  0.28355095  0.38823403  0.29445974     1.49500
O310        O  0.23165394  0.33521431  0.25826385    -1.84200
O311        O  0.26274726  0.28597747  0.14589032    -0.74800
O312        O  0.11679088  0.36009296  0.21258659    -0.74700
O313        O  0.18342827  0.21950972  0.30453075    -0.74200
O314        O  0.20749990  0.34905743  0.12098099    -0.74900
O315        O  0.24440518  0.20254562  0.24703049    -0.74500
O316        O  0.09828015  0.31923663  0.28991142    -0.75000
O317        O  0.26628130  0.38535554  0.37311121    -0.74400
O318        O  0.20715831  0.45112569  0.20280341    -0.75200
O319        O  0.19941518  0.32393639  0.38658953    -0.74600
O320        O  0.27068217  0.46772807  0.26670219    -0.75000
O321        O  0.36339346  0.36597124  0.29026374    -0.75000
O322        O  0.34741526  0.28874703  0.24884326    -0.74700
C323        C  0.23792212  0.31265910  0.10904545     0.77000
C324        C  0.08284367  0.34341452  0.24638616     0.77500
C325        C  0.20893798  0.18628061  0.27935775     0.76500
C326        C  0.23355785  0.36023539  0.40397245     0.76900
C327        C  0.23724080  0.48425155  0.22991710     0.78000
C328        C  0.37961676  0.32243801  0.27287500     0.77100
C329        C  0.50104143  0.01181982  0.30225227     0.01200
C330        C  0.55315095  0.02214662  0.32475900     0.04100
C331        C  0.56194665  0.01282044  0.38016689    -0.12000
C332        C  0.51714554  0.00922018  0.41245591     0.23400
C333        C  0.46650441  0.02244461  0.38919250    -0.12600
C334        C  0.45881992  0.02522524  0.33305245     0.04800
C335        C  0.51887429  0.98170606  0.46591617     0.27200
C336        C  0.49090666  0.93125262  0.47159558    -0.13200
C337        C  0.47907530  0.91051199  0.52268544     0.05300
C338        C  0.49759179  0.93881461  0.56827699    -0.09200
C339        C  0.53169411  0.98546255  0.56291563     0.06100
C340        C  0.54185876  0.00718568  0.51168206    -0.13600
Br341      Br  0.40582232  0.02503241  0.43305107    -0.05700
Br342      Br  0.61134115  0.03498816  0.27819622     0.00000
Br343      Br  0.44017034  0.84192646  0.53042632     0.00400
Br344      Br  0.58856175  0.07030089  0.50490451    -0.04000
Br345      Br  0.38876715  0.03366894  0.29890961     0.00500
Br346      Br  0.63221740  0.99461374  0.40766918    -0.03300
Br347      Br  0.47027692  0.88986800  0.40918725    -0.04100
Br348      Br  0.56382194  0.02022777  0.62588289    -0.00200
C349        C  0.47156528  0.18300320  0.37131230     0.01200
C350        C  0.51800706  0.17644694  0.40517576     0.04100
C351        C  0.51349065  0.17838689  0.46052629    -0.12000
C352        C  0.46225599  0.17333981  0.48138536     0.23400
C353        C  0.41658633  0.16246601  0.44734108    -0.12600
C354        C  0.42118924  0.16715303  0.39165765     0.04800
C355        C  0.45590720  0.19388778  0.53463453     0.27200
C356        C  0.45346052  0.15938949  0.58018968    -0.13200
C357        C  0.45692937  0.18107684  0.63136654     0.05300
C358        C  0.46176615  0.23694705  0.63607405    -0.09200
C359        C  0.46092527  0.27136839  0.59036226     0.06100
C360        C  0.45736655  0.24981559  0.53956482    -0.13600
Br361      Br  0.34700184  0.15185452  0.47684889    -0.05700
Br362      Br  0.58806123  0.17283116  0.37705403     0.00000
Br363      Br  0.45621191  0.13497987  0.69476588     0.00400
Br364      Br  0.45591010  0.29694218  0.47647745    -0.04000
Br365      Br  0.35753339  0.15970001  0.34457675     0.00500
Br366      Br  0.57539966  0.20268288  0.50520766    -0.03300
Br367      Br  0.44376310  0.08328952  0.57215554    -0.04100
Br368      Br  0.46633282  0.34828706  0.59726940    -0.00200
C369        C  0.89839220  0.41614025  0.53443506     0.01200
C370        C  0.91078116  0.44170364  0.58320376     0.04100
C371        C  0.89806642  0.49544889  0.58658127    -0.12000
C372        C  0.88161634  0.52334764  0.53905958     0.23400
C373        C  0.88835408  0.50108455  0.48893658    -0.12600
C374        C  0.90405911  0.44832791  0.48774706     0.04800
C375        C  0.85428817  0.57358928  0.54050319     0.27200
C376        C  0.79790568  0.57219493  0.53869836    -0.13200
C377        C  0.77157488  0.61968280  0.52810570     0.05300
C378        C  0.80188306  0.66781540  0.51795745    -0.09200
C379        C  0.85815511  0.66940625  0.52186264     0.06100
C380        C  0.88403083  0.62245785  0.53513671    -0.13600
Br381      Br  0.86917276  0.53941634  0.42298711    -0.05700
Br382      Br  0.92784567  0.39867421  0.64611038     0.00000
Br383      Br  0.69440928  0.61880664  0.52622614     0.00400
Br384      Br  0.95972147  0.62463634  0.54874754    -0.04000
Br385      Br  0.91732031  0.41602826  0.42138381     0.00500
Br386      Br  0.89682248  0.52796823  0.65517040    -0.03300
Br387      Br  0.75726481  0.50542093  0.55099145    -0.04100
Br388      Br  0.89972161  0.73571653  0.50866829    -0.00200
C389        C  0.06074337  0.75986101  0.48836863     0.01200
C390        C  0.04680010  0.73525866  0.43942391     0.04100
C391        C  0.06308028  0.68321466  0.43301623    -0.12000
C392        C  0.08266500  0.65415760  0.47867181     0.23400
C393        C  0.07781017  0.67410853  0.53020965    -0.12600
C394        C  0.06103124  0.72614965  0.53454933     0.04800
C395        C  0.11276719  0.60616710  0.47336745     0.27200
C396        C  0.08557994  0.55643194  0.46313832    -0.13200
C397        C  0.11369053  0.50976382  0.46699101     0.05300
C398        C  0.16900806  0.51314634  0.48044890    -0.09200
C399        C  0.19704180  0.56286068  0.48751387     0.06100
C400        C  0.16887905  0.60966461  0.48380375    -0.13600
Br401      Br  0.09735502  0.63206711  0.59389401    -0.05700
Br402      Br  0.02099404  0.77826595  0.37929598     0.00000
Br403      Br  0.07608669  0.44071904  0.45668615     0.00400
Br404      Br  0.20673885  0.67834847  0.49478236    -0.04000
Br405      Br  0.05005346  0.75474505  0.60333194     0.00500
Br406      Br  0.06642178  0.65611859  0.36215114    -0.03300
Br407      Br  0.00997256  0.55160087  0.44540373    -0.04100
Br408      Br  0.27345164  0.56626752  0.50346262    -0.00200
C409        C  0.29412824  0.59407172  0.08177393     0.01200
C410        C  0.32238266  0.54804016  0.07548082     0.04100
C411        C  0.37591145  0.54842900  0.09574658    -0.12000
C412        C  0.40187848  0.59745618  0.11232414     0.23400
C413        C  0.37647262  0.64586469  0.10065096    -0.12600
C414        C  0.32412769  0.64309125  0.07715593     0.04800
C415        C  0.45493050  0.59686481  0.14117107     0.27200
C416        C  0.45968035  0.57430487  0.19370710    -0.13200
C417        C  0.51068362  0.56553663  0.21772066     0.05300
C418        C  0.55655026  0.57888368  0.18893618    -0.09200
C419        C  0.55168571  0.60190186  0.13682328     0.06100
C420        C  0.50115256  0.61297321  0.11401344    -0.13600
Br421      Br  0.40825907  0.71394504  0.12379658    -0.05700
Br422      Br  0.28346009  0.48233418  0.05557955     0.00000
Br423      Br  0.51806297  0.53722861  0.29036941     0.00400
Br424      Br  0.49600593  0.65344501  0.04737357    -0.04000
Br425      Br  0.28874313  0.70617783  0.05265121     0.00500
Br426      Br  0.41046148  0.48166961  0.10713688    -0.03300
Br427      Br  0.39643633  0.55769300  0.23336891    -0.04100
Br428      Br  0.61449932  0.61739558  0.09600986    -0.00200
C429        C  0.39743838  0.60810582  0.84233003     0.01200
C430        C  0.44372153  0.62618932  0.81619239     0.04100
C431        C  0.49420983  0.62121490  0.84240403    -0.12000
C432        C  0.49816102  0.59844535  0.89487294     0.23400
C433        C  0.45171320  0.57813684  0.91977176    -0.12600
C434        C  0.40127884  0.58402047  0.89395342     0.04800
C435        C  0.55143600  0.59539558  0.92264900     0.27200
C436        C  0.57576058  0.54588839  0.92863441    -0.13200
C437        C  0.63021643  0.54588644  0.94492673     0.05300
C438        C  0.66141505  0.59415632  0.93862235    -0.09200
C439        C  0.63668587  0.64152583  0.94858132     0.06100
C440        C  0.58114351  0.64309391  0.93746537    -0.13600
Br441      Br  0.45668879  0.53838941  0.98690542    -0.05700
Br442      Br  0.43809141  0.65405711  0.74314819     0.00000
Br443      Br  0.66436540  0.47968763  0.96043939     0.00400
Br444      Br  0.54858029  0.71131325  0.93275528    -0.04000
Br445      Br  0.33721220  0.55904466  0.92927108     0.00500
Br446      Br  0.55802221  0.64188726  0.80477245    -0.03300
Br447      Br  0.53941672  0.48034560  0.90370734    -0.04100
Br448      Br  0.68039278  0.70571033  0.96399748    -0.00200
C449        C  0.97763848  0.43281231  0.11142315     0.01200
C450        C  0.96273480  0.40342970  0.06563570     0.04100
C451        C  0.96766842  0.42787275  0.01486512    -0.12000
C452        C  0.98529407  0.48249398  0.01021015     0.23400
C453        C  0.00096738  0.51147288  0.05646364    -0.12600
C454        C  0.99763925  0.48628986  0.10713998     0.04800
C455        C  0.98904713  0.50748005  0.95625460     0.27200
C456        C  0.03917560  0.51248455  0.93270417    -0.13200
C457        C  0.04054059  0.51676139  0.87663759     0.05300
C458        C  0.99185449  0.51046092  0.84559882    -0.09200
C459        C  0.94459002  0.52349605  0.86895919     0.06100
C460        C  0.94158673  0.51562687  0.92440297    -0.13600
Br461      Br  0.02987260  0.58426366  0.05129793    -0.05700
Br462      Br  0.93824628  0.32889171  0.07274341     0.00000
Br463      Br  0.10842601  0.52063330  0.84315867     0.00400
Br464      Br  0.87169626  0.50029412  0.95273641    -0.04000
Br465      Br  0.02222516  0.52407967  0.17085729     0.00500
Br466      Br  0.95329919  0.38539249  0.95187924    -0.03300
Br467      Br  0.10462780  0.50103076  0.97519923    -0.04100
Br468      Br  0.87994155  0.53229561  0.82446473    -0.00200
C469        C  0.95736994  0.76075611  0.07391348     0.01200
C470        C  0.93522717  0.70791338  0.07106148     0.04100
C471        C  0.93084827  0.68255106  0.02174989    -0.12000
C472        C  0.95058462  0.70917445  0.97565440     0.23400
C473        C  0.96957665  0.76346865  0.97821599    -0.12600
C474        C  0.97375019  0.78889599  0.02748195     0.04800
C475        C  0.95575254  0.68066898  0.92534562     0.27200
C476        C  0.00780497  0.67304096  0.90827894    -0.13200
C477        C  0.01516527  0.66935389  0.85328628     0.05300
C478        C  0.97202163  0.68054043  0.81731577    -0.09200
C479        C  0.92040869  0.66616306  0.83427622     0.06100
C480        C  0.91111989  0.67234914  0.88862127    -0.13600
Br481      Br  0.98945052  0.80358354  0.91423200    -0.05700
Br482      Br  0.91496333  0.66872543  0.13554704     0.00000
Br483      Br  0.08540887  0.66392827  0.82683178     0.00400
Br484      Br  0.83912585  0.68101791  0.90894008    -0.04000
Br485      Br  0.00267060  0.86206160  0.03170639     0.00500
Br486      Br  0.89704866  0.61209827  0.01844935    -0.03300
Br487      Br  0.06993821  0.68007210  0.95712641    -0.04100
Br488      Br  0.86230412  0.66043509  0.78042471    -0.00200
C489        C  0.05670246  0.09580991  0.65610974     0.01200
C490        C  0.04721851  0.12967303  0.61086651     0.04100
C491        C  0.99462820  0.13650687  0.59082172    -0.12000
C492        C  0.95127673  0.11009582  0.61637826     0.23400
C493        C  0.96092743  0.07727532  0.66270836    -0.12600
C494        C  0.01370614  0.06851556  0.68126634     0.04800
C495        C  0.89556587  0.11623750  0.59518937     0.27200
C496        C  0.87133152  0.16554729  0.59878405    -0.13200
C497        C  0.81581235  0.16661154  0.58879451     0.05300
C498        C  0.78540144  0.11798571  0.59281819    -0.09200
C499        C  0.80778434  0.07287105  0.57332397     0.06100
C500        C  0.86392299  0.07084816  0.57698542    -0.13600
Br501      Br  0.90210047  0.04783386  0.70365733    -0.05700
Br502      Br  0.10663479  0.16593367  0.57546165     0.00000
Br503      Br  0.78022392  0.23236029  0.58571482     0.00400
Br504      Br  0.89582262  0.00370572  0.56832058    -0.04000
Br505      Br  0.02686177  0.02133576  0.74279473     0.00500
Br506      Br  0.98272945  0.18348164  0.52946964    -0.03300
Br507      Br  0.90982418  0.22790706  0.62833399    -0.04100
Br508      Br  0.76164133  0.00979345  0.55986896    -0.00200
C509        C  0.82502838  0.06991824  0.42512946     0.01200
C510        C  0.86183614  0.11402647  0.43330487     0.04100
C511        C  0.91558272  0.10713268  0.42453448    -0.12000
C512        C  0.93344219  0.05479259  0.42443966     0.23400
C513        C  0.89826197  0.01046256  0.43576595    -0.12600
C514        C  0.84325702  0.01812026  0.43696487     0.04800
C515        C  0.98413518  0.04667505  0.40042881     0.27200
C516        C  0.98461328  0.04728524  0.34412166    -0.13200
C517        C  0.03350299  0.05233323  0.31967471     0.05300
C518        C  0.08146563  0.05558438  0.35167658    -0.09200
C519        C  0.08120010  0.05054402  0.40779019     0.06100
C520        C  0.03212046  0.04564239  0.43232899    -0.13600
Br521      Br  0.92412519  0.93926558  0.43999279    -0.05700
Br522      Br  0.83779877  0.18463833  0.44324859     0.00000
Br523      Br  0.03480976  0.05848394  0.24250078     0.00400
Br524      Br  0.03033737  0.03778813  0.50895796    -0.04000
Br525      Br  0.79294407  0.95663764  0.44099155     0.00500
Br526      Br  0.95952806  0.16737654  0.39767386    -0.03300
Br527      Br  0.91817453  0.04443984  0.30063885    -0.04100
Br528      Br  0.14783551  0.05216280  0.45053595    -0.00200
C529        C  0.56631297  0.91334018  0.98924312     0.01200
C530        C  0.56077280  0.95337269  0.94854273     0.04100
C531        C  0.56338970  0.00705197  0.96368463    -0.12000
C532        C  0.57205417  0.01841238  0.01863510     0.23400
C533        C  0.56058972  0.97744699  0.05741136    -0.12600
C534        C  0.54952145  0.92493333  0.04005913     0.04800
C535        C  0.60572705  0.06716502  0.03249239     0.27200
C536        C  0.65907047  0.07186110  0.01609172    -0.13200
C537        C  0.68702210  0.12209233  0.01431329     0.05300
C538        C  0.66245417  0.16713762  0.03088364    -0.09200
C539        C  0.61188571  0.16140862  0.05343676     0.06100
C540        C  0.58381450  0.11126579  0.05458103    -0.13600
Br541      Br  0.57161355  0.98925779  0.13297514    -0.05700
Br542      Br  0.56409400  0.93647161  0.87402472     0.00000
Br543      Br  0.75914420  0.12920670  0.99018599     0.00400
Br544      Br  0.51627450  0.10382271  0.08725360    -0.04000
Br545      Br  0.53386250  0.86622520  0.08987928     0.00500
Br546      Br  0.56733475  0.06416997  0.90988558    -0.03300
Br547      Br  0.69414030  0.00949471  0.99617588    -0.04100
Br548      Br  0.57916711  0.22259009  0.08031302    -0.00200
C549        C  0.40395031  0.93566229  0.00377688     0.01200
C550        C  0.41784435  0.96370966  0.95614071     0.04100
C551        C  0.41339605  0.01943154  0.95308312    -0.12000
C552        C  0.40244935  0.04595715  0.99977230     0.23400
C553        C  0.40717351  0.01868587  0.05019162    -0.12600
C554        C  0.41266969  0.96323852  0.05198222     0.04800
C555        C  0.37124374  0.09415787  0.99513027     0.27200
C556        C  0.39569732  0.14551252  0.98504781    -0.13200
C557        C  0.36538941  0.19063715  0.98697400     0.05300
C558        C  0.31100864  0.18426894  0.99856076    -0.09200
C559        C  0.28573501  0.13315231  0.00546959     0.06100
C560        C  0.31559308  0.08796671  0.00279016    -0.13600
Br561      Br  0.39161463  0.05343699  0.11504682    -0.05700
Br562      Br  0.42686733  0.92488024  0.89224944     0.00000
Br563      Br  0.39831443  0.26157325  0.97484817     0.00400
Br564      Br  0.27962327  0.01753548  0.00856147    -0.04000
Br565      Br  0.41611271  0.92447319  0.12002944     0.00500
Br566      Br  0.40958190  0.05593106  0.88385572    -0.03300
Br567      Br  0.46946631  0.15488061  0.96673304    -0.04100
Br568      Br  0.21015668  0.12517467  0.01794799    -0.00200
loop_ 
_geom_bond_atom_site_label_1 
_geom_bond_atom_site_label_2 
_geom_bond_distance 
_geom_bond_site_symmetry_2 
_ccdc_geom_bond_type 
C1            N2   1.348   1_556  A
C1            N6   1.348       .  A
C1          C549   1.490   1_556  S
N2            C3   1.353       .  A
C3            N4   1.380   1_554  A
C3          C300   1.483       .  S
N4            C5   1.380       .  A
C5            N6   1.352       .  A
C5          C177   1.486       .  S
C7            N8   1.335       .  A
C7           N12   1.346   1_554  A
C7          C538   1.459       .  S
N8            C9   1.349       .  A
C9           N10   1.379       .  A
C9          C245   1.489       .  S
N10          C11   1.386   1_554  A
C11          N12   1.357       .  A
C11         C146   1.480       .  S
C13          N14   1.347       .  A
C13          N18   1.342       .  A
C13         C509   1.483       .  S
N14          C15   1.356       .  A
C15          N16   1.383       .  A
C15         C247   1.490       .  S
N16          C17   1.380       .  A
C17          N18   1.347       .  A
C17         C277   1.480   1_545  S
C19          N20   1.350       .  A
C19          N24   1.343       .  A
C19         C489   1.460       .  S
N20          C21   1.358       .  A
C21          N22   1.378       .  A
C21         C174   1.481       .  S
N22          C23   1.377       .  A
C23          N24   1.346       .  A
C23         C112   1.474       .  S
C25          N26   1.347   1_655  A
C25          N30   1.348       .  A
C25         C469   1.460       .  S
N26          C27   1.351       .  A
C27          N28   1.381   1_455  A
C27         C305   1.483       .  S
N28          C29   1.380       .  A
C29          N30   1.354       .  A
C29         C282   1.486       .  S
C31          N32   1.345   1_655  A
C31          N36   1.346       .  A
C31         C458   1.486       .  S
N32          C33   1.355       .  A
C33          N34   1.378   1_455  A
C33         C113   1.471       .  S
N34          C35   1.375       .  A
C35          N36   1.346       .  A
C35         C145   1.476       .  S
C37          N38   1.347   1_556  A
C37          N42   1.344       .  A
C37         C529   1.486       .  S
N38          C39   1.348       .  A
C39          N40   1.378   1_554  A
C39         C279   1.478       .  S
N40          C41   1.379       .  A
C41          N42   1.356       .  A
C41         C215   1.478       .  S
C43          N44   1.344       .  A
C43          N48   1.340   1_554  A
C43         C558   1.453   1_554  S
N44          C45   1.357       .  A
C45          N46   1.381       .  A
C45         C323   1.491       .  S
N46          C47   1.381   1_554  A
C47          N48   1.349       .  A
C47         C111   1.473       .  S
C49          N50   1.345       .  A
C49          N54   1.343       .  A
C49         C498   1.485       .  S
N50          C51   1.353       .  A
C51          N52   1.385       .  A
C51         C144   1.488       .  S
N52          C53   1.384       .  A
C53          N54   1.349       .  A
C53         C218   1.488   1_545  S
C55          N56   1.345       .  A
C55          N60   1.341       .  A
C55         C518   1.448       .  S
N56          C57   1.354       .  A
C57          N58   1.381       .  A
C57         C325   1.486       .  S
N58          C59   1.378       .  A
C59          N60   1.349       .  A
C59         C302   1.473   1_545  S
C61          N62   1.345   1_655  A
C61          N66   1.344       .  A
C61         C478   1.485       .  S
N62          C63   1.356       .  A
C63          N64   1.388   1_455  A
C63         C172   1.484       .  S
N64          C65   1.381       .  A
C65          N66   1.346       .  A
C65         C213   1.490       .  S
C67          N68   1.332   1_655  A
C67          N72   1.335       .  A
C67         C449   1.448       .  S
N68          C69   1.352       .  A
C69          N70   1.386   1_455  A
C69         C324   1.495       .  S
N70          C71   1.389       .  A
C71          N72   1.355       .  A
C71         C244   1.490       .  S
C73          N74   1.340       .  A
C73          N78   1.335       .  A
C73         C429   1.454       .  S
N74          C75   1.357       .  A
C75          N76   1.388       .  A
C75         C176   1.498       .  S
N76          C77   1.387       .  A
C77          N78   1.348       .  A
C77         C110   1.492       .  S
C79          N80   1.346       .  A
C79          N84   1.348       .  A
C79         C409   1.489       .  S
N80          C81   1.350       .  A
C81          N82   1.384       .  A
C81         C327   1.485       .  S
N82          C83   1.383       .  A
C83          N84   1.356       .  A
C83         C304   1.495       .  S
C85          N86   1.339       .  A
C85          N90   1.342       .  A
C85         C398   1.449       .  S
N86          C87   1.350       .  A
C87          N88   1.381       .  A
C87         C326   1.474       .  S
N88          C89   1.381       .  A
C89          N90   1.354       .  A
C89         C108   1.489       .  S
Zn91         O95   1.977       .  S
Zn91         O96   2.015       .  S
Zn91        O100   2.088       .  S
Zn91        O107   2.019       .  S
Zn92         O95   1.977       .  S
Zn92         O97   1.966       .  S
Zn92         O99   2.087       .  S
Zn92        O103   2.044       .  S
Zn93         O95   2.004       .  S
Zn93         O98   2.024       .  S
Zn93        O101   2.134       .  S
Zn93        O104   2.068       .  S
Zn94         O95   1.980       .  S
Zn94        O102   2.037       .  S
Zn94        O105   2.050       .  S
Zn94        O106   2.059       .  S
O96         C108   1.278       .  A
O97         C109   1.273       .  A
O98         C110   1.281       .  A
O99         C108   1.276       .  A
O100        C110   1.274       .  A
O101        C109   1.278       .  A
O102        C111   1.277       .  A
O103        C112   1.273       .  A
O104        C111   1.279       .  A
O105        C112   1.278       .  A
O106        C113   1.275       .  A
O107        C113   1.276       .  A
C109        C124   1.496       .  S
C114        N115   1.346       .  A
C114        N119   1.347       .  A
C114        C369   1.487       .  S
N115        C116   1.353       .  A
C116        N117   1.381       .  A
C116        C242   1.482       .  S
N117        C118   1.379       .  A
C118        N119   1.353       .  A
C118        C143   1.486       .  S
C120        N121   1.335       .  A
C120        N125   1.332       .  A
C120        C358   1.450       .  S
N121        C122   1.356       .  A
C122        N123   1.389       .  A
C122        C147   1.496       .  S
N123        C124   1.388       .  A
C124        N125   1.353       .  A
Zn126       O130   1.970       .  S
Zn126       O131   2.001       .  S
Zn126       O135   1.995       .  S
Zn126       O142   2.080       .  S
Zn127       O130   1.949       .  S
Zn127       O132   2.021       .  S
Zn127       O134   2.090       .  S
Zn127       O138   1.984       .  S
Zn128       O130   2.020       .  S
Zn128       O133   2.098       .  S
Zn128       O136   2.106       .  S
Zn128       O139   2.063       .  S
Zn129       O130   2.005       .  S
Zn129       O137   2.065       .  S
Zn129       O140   2.127       .  S
Zn129       O141   2.031       .  S
O131        C143   1.274       .  A
O132        C144   1.275       .  A
O133        C145   1.280       .  A
O134        C143   1.275       .  A
O135        C145   1.274       .  A
O136        C144   1.280       .  A
O137        C146   1.279       .  A
O138        C147   1.277       .  A
O139        C146   1.282       .  A
O140        C147   1.280       .  A
O141        C148   1.280       .  A
O142        C148   1.274       .  A
C148        C180   1.489       .  S
C149        N150   1.348       .  A
C149        N154   1.345       .  A
C149        C389   1.486       .  S
N150        C151   1.354       .  A
C151        N152   1.381       .  A
C151        C303   1.494       .  S
N152        C153   1.382       .  A
C153        N154   1.353       .  A
C153        C173   1.487       .  S
Zn155       O159   2.019       .  S
Zn155       O160   2.079       .  S
Zn155       O164   2.044       .  S
Zn155       O171   2.100       .  S
Zn156       O159   1.985       .  S
Zn156       O161   2.020       .  S
Zn156       O163   2.038       .  S
Zn156       O167   2.119       .  S
Zn157       O159   2.003       .  S
Zn157       O162   2.082       .  S
Zn157       O165   2.092       .  S
Zn157       O168   2.051       .  S
Zn158       O159   1.959       .  S
Zn158       O166   2.090       .  S
Zn158       O169   2.002       .  S
Zn158       O170   2.024       .  S
O160        C172   1.276       .  A
O161        C173   1.279       .  A
O162        C174   1.282   1_565  A
O163        C172   1.279       .  A
O164        C174   1.278   1_565  A
O165        C173   1.277       .  A
O166        C175   1.277       .  A
O167        C176   1.277       .  A
O168        C175   1.281       .  A
O169        C176   1.275       .  A
O170        C177   1.278       .  A
O171        C177   1.280       .  A
C175        C186   1.499       .  S
C178        N179   1.346       .  A
C178        N183   1.350       .  A
C178        C438   1.488       .  S
N179        C180   1.352       .  A
C180        N181   1.379       .  A
N181        C182   1.380       .  A
C182        N183   1.355       .  A
C182        C214   1.487       .  S
C184        N185   1.350       .  A
C184        N189   1.333       .  A
C184        C338   1.461       .  S
N185        C186   1.364       .  A
C186        N187   1.388       .  A
N187        C188   1.382       .  A
C188        N189   1.347       .  A
C188        C216   1.491       .  S
C190        N191   1.343       .  A
C190        N195   1.337       .  A
C190        C378   1.454       .  S
N191        C192   1.357       .  A
C192        N193   1.387       .  A
C192        C281   1.489       .  S
N193        C194   1.383       .  A
C194        N195   1.352       .  A
C194        C217   1.496       .  S
Zn196       O200   2.046       .  S
Zn196       O201   2.152       .  S
Zn196       O205   2.118       .  S
Zn196       O212   2.124       .  S
Zn197       O200   1.931       .  S
Zn197       O202   2.070       .  S
Zn197       O204   1.990       .  S
Zn197       O208   1.975       .  S
Zn198       O200   1.983       .  S
Zn198       O203   1.977       .  S
Zn198       O206   2.029       .  S
Zn198       O209   2.110       .  S
Zn199       O200   1.953       .  S
Zn199       O207   1.981       .  S
Zn199       O210   2.127       .  S
Zn199       O211   2.004       .  S
O201        C213   1.288       .  A
O202        C214   1.274       .  A
O203        C215   1.273       .  A
O204        C213   1.273       .  A
O205        C215   1.284       .  A
O206        C214   1.277       .  A
O207        C216   1.274       .  A
O208        C217   1.272       .  A
O209        C216   1.275       .  A
O210        C217   1.277       .  A
O211        C218   1.278       .  A
O212        C218   1.283       .  A
C219        N220   1.348       .  A
C219        N224   1.345       .  A
C219        C349   1.487       .  S
N220        C221   1.354       .  A
C221        N222   1.376       .  A
C221        C328   1.481       .  S
N222        C223   1.378       .  A
C223        N224   1.350       .  A
C223        C246   1.472       .  S
Zn225       O229   1.978       .  S
Zn225       O230   2.019       .  S
Zn225       O234   2.091       .  S
Zn225       O241   2.019       .  S
Zn226       O229   1.998       .  S
Zn226       O231   2.051       .  S
Zn226       O233   2.095       .  S
Zn226       O237   2.063       .  S
Zn227       O229   1.998       .  S
Zn227       O232   2.007       .  S
Zn227       O235   2.075       .  S
Zn227       O238   2.117       .  S
Zn228       O229   1.961       .  S
Zn228       O236   1.965       .  S
Zn228       O239   2.028       .  S
Zn228       O240   2.092       .  S
O230        C242   1.278       .  A
O231        C243   1.279       .  A
O232        C244   1.279       .  A
O233        C242   1.280       .  A
O234        C244   1.275       .  A
O235        C243   1.280       .  A
O236        C245   1.273       .  A
O237        C246   1.277       .  A
O238        C245   1.277       .  A
O239        C246   1.276       .  A
O240        C247   1.275       .  A
O241        C247   1.276       .  A
C243        C256   1.482       .  S
C248        N249   1.348       .  A
C248        N253   1.348       .  A
C248        C329   1.491   1_565  S
N249        C250   1.355       .  A
C250        N251   1.380       .  A
C250        C301   1.486       .  S
N251        C252   1.378       .  A
C252        N253   1.354       .  A
C252        C278   1.487       .  S
C254        N255   1.347       .  A
C254        N259   1.338       .  A
C254        C418   1.460       .  S
N255        C256   1.360       .  A
C256        N257   1.384       .  A
N257        C258   1.379       .  A
C258        N259   1.348       .  A
C258        C280   1.489       .  S
Zn260       O264   2.010       .  S
Zn260       O265   2.126       .  S
Zn260       O269   2.090       .  S
Zn260       O276   2.070       .  S
Zn261       O264   1.964       .  S
Zn261       O266   1.997       .  S
Zn261       O268   1.982       .  S
Zn261       O272   2.069       .  S
Zn262       O264   1.961       .  S
Zn262       O267   2.023       .  S
Zn262       O270   2.106       .  S
Zn262       O273   1.994       .  S
Zn263       O264   2.000       .  S
Zn263       O271   2.104       .  S
Zn263       O274   2.044       .  S
Zn263       O275   2.076       .  S
O265        C277   1.284       .  A
O266        C278   1.273       .  A
O267        C279   1.276       .  A
O268        C277   1.272       .  A
O269        C279   1.280       .  A
O270        C278   1.277       .  A
O271        C280   1.277       .  A
O272        C281   1.275       .  A
O273        C280   1.277       .  A
O274        C281   1.282       .  A
O275        C282   1.281       .  A
O276        C282   1.282       .  A
Zn283       O287   2.006       .  S
Zn283       O288   2.100       .  S
Zn283       O292   2.066       .  S
Zn283       O299   2.055       .  S
Zn284       O287   1.967       .  S
Zn284       O289   2.068       .  S
Zn284       O291   2.017       .  S
Zn284       O295   2.000       .  S
Zn285       O287   1.992       .  S
Zn285       O290   2.034       .  S
Zn285       O293   2.034       .  S
Zn285       O296   2.099       .  S
Zn286       O287   1.997       .  S
Zn286       O294   2.026       .  S
Zn286       O297   2.134       .  S
Zn286       O298   2.073       .  S
O288        C300   1.280       .  A
O289        C301   1.274       .  A
O290        C302   1.274       .  A
O291        C300   1.274       .  A
O292        C302   1.279       .  A
O293        C301   1.280       .  A
O294        C303   1.280       .  A
O295        C304   1.275       .  A
O296        C303   1.279       .  A
O297        C304   1.283       .  A
O298        C305   1.278       .  A
O299        C305   1.279       .  A
Zn306       O310   1.958       .  S
Zn306       O311   2.002       .  S
Zn306       O315   2.055       .  S
Zn306       O322   1.992       .  S
Zn307       O310   1.953       .  S
Zn307       O312   1.966       .  S
Zn307       O314   2.099       .  S
Zn307       O318   2.006       .  S
Zn308       O310   2.018       .  S
Zn308       O313   2.042       .  S
Zn308       O316   2.129       .  S
Zn308       O319   2.071       .  S
Zn309       O310   2.002       .  S
Zn309       O317   2.035       .  S
Zn309       O320   2.121       .  S
Zn309       O321   2.116       .  S
O311        C323   1.274       .  A
O312        C324   1.274       .  A
O313        C325   1.281       .  A
O314        C323   1.276       .  A
O315        C325   1.273       .  A
O316        C324   1.278       .  A
O317        C326   1.279       .  A
O318        C327   1.273       .  A
O319        C326   1.279       .  A
O320        C327   1.283       .  A
O321        C328   1.284       .  A
O322        C328   1.273       .  A
C329        C330   1.404       .  A
C329        C334   1.405       .  A
C330        C331   1.404       .  A
C330       Br342   1.920       .  S
C331        C332   1.415       .  A
C331       Br346   1.927   1_545  S
C332        C335   1.481   1_545  S
C332        C333   1.417       .  A
C333        C334   1.406       .  A
C333       Br341   1.928       .  S
C334       Br345   1.927       .  S
C335        C336   1.412       .  A
C335        C340   1.407   1_565  A
C336        C337   1.402       .  A
C336       Br347   1.932       .  S
C337        C338   1.405       .  A
C337       Br343   1.930       .  S
C338        C339   1.410       .  A
C339        C340   1.404   1_565  A
C339       Br348   1.937   1_565  S
C340       Br344   1.915       .  S
C349        C350   1.413       .  A
C349        C354   1.415       .  A
C350        C351   1.398       .  A
C350       Br362   1.934       .  S
C351        C352   1.408       .  A
C351       Br366   1.938       .  S
C352        C355   1.464       .  S
C352        C353   1.405       .  A
C353        C354   1.404       .  A
C353       Br361   1.929       .  S
C354       Br365   1.931       .  S
C355        C356   1.407       .  A
C355        C360   1.407       .  A
C356        C357   1.404       .  A
C356       Br367   1.921       .  S
C357        C358   1.404       .  A
C357       Br363   1.927       .  S
C358        C359   1.407       .  A
C359        C360   1.393       .  A
C359       Br368   1.934       .  S
C360       Br364   1.936       .  S
C369        C370   1.407       .  A
C369        C374   1.403       .  A
C370        C371   1.407       .  A
C370       Br382   1.917       .  S
C371        C372   1.411       .  A
C371       Br386   1.926       .  S
C372        C375   1.470       .  S
C372        C373   1.412       .  A
C373        C374   1.402       .  A
C373       Br381   1.930       .  S
C374       Br385   1.925       .  S
C375        C376   1.408       .  A
C375        C380   1.399       .  A
C376        C377   1.404       .  A
C376       Br387   1.927       .  S
C377        C378   1.407       .  A
C377       Br383   1.928       .  S
C378        C379   1.404       .  A
C379        C380   1.397       .  A
C379       Br388   1.932       .  S
C380       Br384   1.904       .  S
C389        C390   1.406       .  A
C389        C394   1.406       .  A
C390        C391   1.405       .  A
C390       Br402   1.923       .  S
C391        C392   1.412       .  A
C391       Br406   1.927       .  S
C392        C395   1.470       .  S
C392        C393   1.412       .  A
C393        C394   1.402       .  A
C393       Br401   1.933       .  S
C394       Br405   1.926       .  S
C395        C396   1.406       .  A
C395        C400   1.412       .  A
C396        C397   1.397       .  A
C396       Br407   1.917       .  S
C397        C398   1.404       .  A
C397       Br403   1.935       .  S
C398        C399   1.402       .  A
C399        C400   1.401       .  A
C399       Br408   1.929       .  S
C400       Br404   1.932       .  S
C409        C410   1.406       .  A
C409        C414   1.403       .  A
C410        C411   1.405       .  A
C410       Br422   1.925       .  S
C411        C412   1.417       .  A
C411       Br426   1.932       .  S
C412        C415   1.476       .  S
C412        C413   1.416       .  A
C413        C414   1.404       .  A
C413       Br421   1.929       .  S
C414       Br425   1.922       .  S
C415        C416   1.413       .  A
C415        C420   1.405       .  A
C416        C417   1.406       .  A
C416       Br427   1.931       .  S
C417        C418   1.406       .  A
C417       Br423   1.929       .  S
C418        C419   1.408       .  A
C419        C420   1.397       .  A
C419       Br428   1.934       .  S
C420       Br424   1.921       .  S
C429        C430   1.405       .  A
C429        C434   1.406       .  A
C430        C431   1.401       .  A
C430       Br442   1.933       .  S
C431        C432   1.412       .  A
C431       Br446   1.933       .  S
C432        C435   1.473       .  S
C432        C433   1.409       .  A
C433        C434   1.399       .  A
C433       Br441   1.922       .  S
C434       Br445   1.934       .  S
C435        C436   1.413       .  A
C435        C440   1.416       .  A
C436        C437   1.400       .  A
C436       Br447   1.932       .  S
C437        C438   1.407       .  A
C437       Br443   1.927       .  S
C438        C439   1.406       .  A
C439        C440   1.405       .  A
C439       Br448   1.925       .  S
C440       Br444   1.933       .  S
C449        C450   1.403       .  A
C449        C454   1.402       .  A
C450        C451   1.398       .  A
C450       Br462   1.933       .  S
C451        C452   1.413       .  A
C451       Br466   1.936   1_554  S
C452        C455   1.472   1_554  S
C452        C453   1.411   1_655  A
C453        C454   1.399   1_455  A
C453       Br461   1.921       .  S
C454       Br465   1.933   1_655  S
C455        C456   1.412   1_655  A
C455        C460   1.414       .  A
C456        C457   1.404       .  A
C456       Br467   1.932       .  S
C457        C458   1.411   1_455  A
C457       Br463   1.932       .  S
C458        C459   1.409       .  A
C459        C460   1.399       .  A
C459       Br468   1.931       .  S
C460       Br464   1.936       .  S
C469        C470   1.405       .  A
C469        C474   1.404       .  A
C470        C471   1.402       .  A
C470       Br482   1.933       .  S
C471        C472   1.409   1_554  A
C471       Br486   1.911       .  S
C472        C475   1.483       .  S
C472        C473   1.414       .  A
C473        C474   1.402   1_556  A
C473       Br481   1.931       .  S
C474       Br485   1.931   1_655  S
C475        C476   1.419   1_655  A
C475        C480   1.416       .  A
C476        C477   1.404       .  A
C476       Br487   1.926       .  S
C477        C478   1.401   1_455  A
C477       Br483   1.927       .  S
C478        C479   1.404       .  A
C479        C480   1.407       .  A
C479       Br488   1.928       .  S
C480       Br484   1.926       .  S
C489        C490   1.407       .  A
C489        C494   1.406       .  A
C490        C491   1.400   1_455  A
C490       Br502   1.935       .  S
C491        C492   1.408       .  A
C491       Br506   1.920       .  S
C492        C495   1.478       .  S
C492        C493   1.414       .  A
C493        C494   1.403   1_655  A
C493       Br501   1.935       .  S
C494       Br505   1.932       .  S
C495        C496   1.415       .  A
C495        C500   1.418       .  A
C496        C497   1.400       .  A
C496       Br507   1.930       .  S
C497        C498   1.399       .  A
C497       Br503   1.915       .  S
C498        C499   1.404       .  A
C499        C500   1.407       .  A
C499       Br508   1.926       .  S
C500       Br504   1.927       .  S
C509        C510   1.407       .  A
C509        C514   1.416       .  A
C510        C511   1.397       .  A
C510       Br522   1.929       .  S
C511        C512   1.409       .  A
C511       Br526   1.935       .  S
C512        C515   1.462       .  S
C512        C513   1.405       .  A
C513        C514   1.404       .  A
C513       Br521   1.930   1_545  S
C514       Br525   1.931   1_545  S
C515        C516   1.408       .  A
C515        C520   1.405   1_655  A
C516        C517   1.395   1_655  A
C516       Br527   1.934       .  S
C517        C518   1.404       .  A
C517       Br523   1.932       .  S
C518        C519   1.405       .  A
C519        C520   1.400       .  A
C519       Br528   1.929       .  S
C520       Br524   1.922       .  S
C529        C530   1.410       .  A
C529        C534   1.406   1_556  A
C530        C531   1.405   1_565  A
C530       Br542   1.932       .  S
C531        C532   1.415   1_556  A
C531       Br546   1.930       .  S
C532        C535   1.480       .  S
C532        C533   1.414   1_545  A
C533        C534   1.405       .  A
C533       Br541   1.924       .  S
C534       Br545   1.928       .  S
C535        C536   1.415       .  A
C535        C540   1.405       .  A
C536        C537   1.401       .  A
C536       Br547   1.930   1_554  S
C537        C538   1.402       .  A
C537       Br543   1.931   1_554  S
C538        C539   1.412       .  A
C539        C540   1.400       .  A
C539       Br548   1.937       .  S
C540       Br544   1.915       .  S
C549        C550   1.411   1_554  A
C549        C554   1.410       .  A
C550        C551   1.404   1_565  A
C550       Br562   1.930       .  S
C551        C552   1.411       .  A
C551       Br566   1.929       .  S
C552        C555   1.474       .  S
C552        C553   1.415   1_556  A
C553        C554   1.401   1_545  A
C553       Br561   1.936       .  S
C554       Br565   1.929       .  S
C555        C556   1.410       .  A
C555        C560   1.415   1_556  A
C556        C557   1.402       .  A
C556       Br567   1.926       .  S
C557        C558   1.406       .  A
C557       Br563   1.932       .  S
C558        C559   1.401   1_556  A
C559        C560   1.398       .  A
C559       Br568   1.932       .  S
C560       Br564   1.934       .  S
