geometry optimzed in LAMMPS
_audit_creation_date              2020-11-30 
_audit_creation_method            'lammps2cif' 
_symmetry_space_group_name_H-M    'P1' 
_symmetry_Int_Tables_number       1 
_symmetry_cell_setting            triclinic 
loop_ 
_symmetry_equiv_pos_as_xyz 
  x,y,z 
_cell_length_a                    42.080456051093336 
_cell_length_b                    41.07788618007574 
_cell_length_c                    30.575207388295244 
_cell_angle_alpha                 90.49675310721194 
_cell_angle_beta                  90.33697279738878 
_cell_angle_gamma                 121.74033215406897 
loop_ 
_atom_site_label 
_atom_site_type_symbol 
_atom_site_fract_x 
_atom_site_fract_y 
_atom_site_fract_z 
_atom_site_charge 
C1          C  0.11354612  0.05060831  0.37815963     0.00620
C2          C  0.14681953  0.07121814  0.39952816     0.00620
C3          C  0.13335263  0.06598820  0.23627387     0.00620
C4          C  0.16123382  0.07979876  0.20695364     0.00620
O5          O  0.10907883  0.48978242  0.34807925    -0.74370
O6          O  0.04214789  0.42816782  0.24604923    -0.74410
O7          O  0.11514893  0.49592366  0.25454436    -0.74460
O8          O  0.03567805  0.41650530  0.33691606    -0.74510
O9          O  0.00761267  0.44145596  0.30720826    -0.74440
O10         O  0.10052009  0.52937474  0.29257980    -0.74420
O11         O  0.04427666  0.48158750  0.23883654    -0.74400
O12         O  0.05957919  0.48961952  0.36353132    -0.74460
Ni13       Ni  0.07818029  0.45447575  0.29646919     1.25410
Ni14       Ni  0.05169405  0.48762399  0.30086272     1.25360
C15         C  0.09414118  0.50603623  0.36970669     0.87800
C16         C  0.02788460  0.44666379  0.22876002     0.87740
C17         C  0.11868826  0.52880870  0.26183564     0.87760
C18         C  0.00505577  0.41695681  0.33238216     0.87940
C19         C  0.46637889  0.39498360  0.19513050     0.00620
C20         C  0.48582534  0.42829956  0.21883065     0.00620
C21         C  0.46704348  0.39908729  0.35639392     0.00620
C22         C  0.45484428  0.37195081  0.38742786     0.00620
C23         C  0.47276529  0.06530715  0.22907422     0.00620
C24         C  0.45748357  0.08015490  0.20346427     0.00620
C25         C  0.46634375  0.05980928  0.36440390     0.00620
C26         C  0.45545461  0.08041490  0.38802912     0.00620
O27         O  0.03518822  0.11039809  0.34168040    -0.74370
O28         O  0.11363239  0.11346928  0.26107959    -0.74410
O29         O  0.04022475  0.11539660  0.25584711    -0.74460
O30         O  0.10397979  0.10463602  0.34841779    -0.74510
O31         O  0.06473037  0.04414792  0.33577401    -0.74440
O32         O  0.02085601  0.05644656  0.23841194    -0.74420
O33         O  0.07370582  0.05335536  0.24441880    -0.74400
O34         O  0.01343152  0.05019897  0.33635448    -0.74460
Ni35       Ni  0.07565643  0.11487418  0.30158959     1.25410
Ni36       Ni  0.04184609  0.04964825  0.28859525     1.25360
C37         C  0.00787954  0.07594896  0.34864620     0.87800
C38         C  0.10678588  0.08115972  0.24383250     0.87740
C39         C  0.01513210  0.08312391  0.23728029     0.87760
C40         C  0.09369189  0.06910545  0.35506177     0.87940
O41         O  0.45930664  0.00171266  0.37166559    -0.74370
O42         O  0.48869235  0.47794060  0.26510800    -0.74410
O43         O  0.46955672  0.02834362  0.28463747    -0.74460
O44         O  0.47739113  0.45935872  0.35393775    -0.74510
O45         O  0.41896914  0.41878526  0.33512488    -0.74440
O46         O  0.42115681  0.49363772  0.24593783    -0.74420
O47         O  0.43148981  0.43065282  0.25001609    -0.74400
O48         O  0.41268529  0.49361881  0.33503305    -0.74460
Ni49       Ni  0.47568379  0.49333183  0.31822609     1.25410
Ni50       Ni  0.41610779  0.45603721  0.29238851     1.25360
C51         C  0.44077887  0.51538468  0.36151336     0.87800
C52         C  0.46694101  0.44661639  0.24407216     0.87740
C53         C  0.45078188  0.52649704  0.25290037     0.87760
C54         C  0.45093141  0.42547796  0.35158480     0.87940
C55         C  0.08716977  0.14440973  0.89809727     0.00620
C56         C  0.07071206  0.11339902  0.87096830     0.00620
C57         C  0.08040862  0.46997699  0.87128741     0.00620
C58         C  0.09053163  0.44932589  0.89544477     0.00620
C59         C  0.39627131  0.45420384  0.89951966     0.00620
C60         C  0.42532434  0.47119524  0.87220605     0.00620
C61         C  0.07657754  0.46942622  0.72359235     0.00620
C62         C  0.08874509  0.45180516  0.69727758     0.00620
O63         O  0.13102540  0.03857078  0.74840163    -0.74370
O64         O  0.12673923  0.10479378  0.84731982    -0.74410
O65         O  0.13604565  0.03487167  0.84352566    -0.74460
O66         O  0.12660857  0.10512194  0.75830081    -0.74510
O67         O  0.07273716  0.05196830  0.74867452    -0.74440
O68         O  0.08756871  0.03006301  0.86904711    -0.74420
O69         O  0.06871935  0.06828270  0.82935918    -0.74400
O70         O  0.08780234  0.99832143  0.78805872    -0.74460
Ni71       Ni  0.13593930  0.07402397  0.80018254     1.25410
Ni72       Ni  0.07630532  0.03446601  0.80800571     1.25360
C73         C  0.10296260  0.00385266  0.75307356     0.87800
C74         C  0.09210142  0.09690725  0.84910702     0.87740
C75         C  0.10643166  0.01517871  0.86782134     0.87760
C76         C  0.09366715  0.08829262  0.74080957     0.87940
C77         C  0.08795362  0.13874723  0.69561692     0.00620
C78         C  0.07397134  0.11073092  0.72582736     0.00620
C79         C  0.42240914  0.46999717  0.72513703     0.00620
C80         C  0.38953188  0.44901936  0.70340220     0.00620
O81         O  0.43920521  0.03886067  0.84752211    -0.74370
O82         O  0.50994795  0.10396501  0.74896364    -0.74410
O83         O  0.43157506  0.03414280  0.75254025    -0.74460
O84         O  0.51176705  0.10715637  0.83909579    -0.74510
O85         O  0.01005632  0.05436521  0.85242638    -0.74440
O86         O  0.47707650  0.03062144  0.73018288    -0.74420
O87         O  0.03457839  0.07414215  0.77538827    -0.74400
O88         O  0.44345435  0.99893133  0.80848295    -0.74460
Ni89       Ni  0.47040076  0.07426578  0.79656850     1.25410
Ni90       Ni  0.49177908  0.03682099  0.79203122     1.25360
C91         C  0.43285923  0.00441630  0.84276210     0.87800
C92         C  0.03788057  0.09827448  0.75024664     0.87740
C93         C  0.44261439  0.01503893  0.72940698     0.87760
C94         C  0.02741513  0.09103651  0.85811208     0.87940
O95         O  0.03110949  0.48069072  0.74733294    -0.74370
O96         O  0.48294600  0.48267740  0.84955304    -0.74410
O97         O  0.03824786  0.47993020  0.83599141    -0.74460
O98         O  0.47469644  0.48034074  0.76120693    -0.74510
O99         O  0.43787885  0.41935095  0.75457537    -0.74440
O100        O  0.51228195  0.41915168  0.84148489    -0.74420
O101        O  0.44105946  0.42148607  0.84399136    -0.74400
O102        O  0.51039049  0.41976315  0.75241098    -0.74460
Ni103      Ni  0.50733857  0.48192236  0.79857181     1.25410
Ni104      Ni  0.47334375  0.41606830  0.79813439     1.25360
C105        C  0.03535128  0.45342678  0.73787417     0.87800
C106        C  0.45073190  0.45548520  0.85871209     0.87740
C107        C  0.04074974  0.45329328  0.84981806     0.87760
C108        C  0.44487323  0.45353530  0.74648453     0.87940
O109        O  0.32724905  0.28088345  0.08589387    -0.74370
O110        O  0.25172344  0.22325652  0.99788402    -0.74410
O111        O  0.31920434  0.29051268  0.00000675    -0.74460
O112        O  0.26108961  0.21408662  0.08347219    -0.74510
O113        O  0.23116805  0.24371548  0.10155572    -0.74440
O114        O  0.29175762  0.32238328  0.01956430    -0.74420
O115        O  0.22441771  0.25558302  0.01554631    -0.74400
O116        O  0.29846383  0.31143169  0.10498245    -0.74460
Ni117      Ni  0.29076810  0.25106387  0.04107887     1.25410
Ni118      Ni  0.26031061  0.28430911  0.06100641     1.25360
C119        C  0.32544359  0.30578079  0.10966086     0.87800
C120        C  0.22545865  0.22998323  0.99243836     0.87740
C121        C  0.31584680  0.31955988  0.99710285     0.87760
C122        C  0.23690781  0.21622417  0.10637224     0.87940
O123        O  0.48272202  0.21378191  0.08449998    -0.74370
O124        O  0.00086715  0.28364050  0.99172026    -0.74410
O125        O  0.99925081  0.21674993  0.99864801    -0.74460
O126        O  0.48454978  0.28075842  0.07680199    -0.74510
O127        O  0.04514449  0.31287501  0.09523036    -0.74440
O128        O  0.05988891  0.24916385  0.01695854    -0.74420
O129        O  0.06160143  0.31575464  0.00918486    -0.74400
O130        O  0.04347909  0.24570715  0.10182300    -0.74460
Ni131      Ni  0.48965112  0.24751364  0.03738537     1.25410
Ni132      Ni  0.05469642  0.28212825  0.05643895     1.25360
C133        C  0.01008533  0.21754347  0.10752254     0.87800
C134        C  0.03432728  0.31143777  0.98548363     0.87740
C135        C  0.03202040  0.22217676  0.99574915     0.87760
C136        C  0.01250465  0.30779998  0.09791259     0.87940
O137        O  0.29439363  0.98697886  0.10290306    -0.74370
O138        O  0.21948510  0.46971690  0.01924290    -0.74410
O139        O  0.28411351  0.47036035  0.01621939    -0.74460
O140        O  0.22959286  0.98682525  0.10514526    -0.74510
O141        O  0.25977911  0.04854005  0.08712422    -0.74440
O142        O  0.31673270  0.03288795  0.00201234    -0.74420
O143        O  0.25149517  0.03145785  0.00107873    -0.74400
O144        O  0.32496934  0.04938940  0.08788930    -0.74460
Ni145      Ni  0.25582647  0.47621263  0.06145165     1.25410
Ni146      Ni  0.28939076  0.04282419  0.04410600     1.25360
C147        C  0.32236043  0.02102543  0.10836762     0.87800
C148        C  0.22274359  0.49760496  0.99716428     0.87740
C149        C  0.30969414  0.49897831  0.99509222     0.87760
C150        C  0.23479636  0.02037233  0.10917032     0.87940
O151        O  0.25240126  0.03374528  0.60281489    -0.74370
O152        O  0.32485311  0.05595620  0.51401869    -0.74410
O153        O  0.25944785  0.05403523  0.51882675    -0.74460
O154        O  0.31755440  0.03504140  0.59923213    -0.74510
O155        O  0.28540055  0.47346084  0.57848375    -0.74440
O156        O  0.22951173  0.99310999  0.49569786    -0.74420
O157        O  0.29475751  0.99433068  0.49402540    -0.74400
O158        O  0.22025628  0.47268175  0.58019397    -0.74460
Ni159      Ni  0.28981965  0.04691043  0.55943539     1.25410
Ni160      Ni  0.25640517  0.48116856  0.53642933     1.25360
C161        C  0.22360649  0.49986982  0.60465618     0.87800
C162        C  0.32210527  0.02889537  0.48983031     0.87740
C163        C  0.23432392  0.02652506  0.49512258     0.87760
C164        C  0.31101210  0.50097150  0.60167400     0.87940
O165        O  0.04957687  0.24384839  0.49645435    -0.74370
O166        O  0.06194008  0.31730876  0.58322120    -0.74410
O167        O  0.06627869  0.25388317  0.58325750    -0.74460
O168        O  0.04466402  0.30721242  0.49668886    -0.74510
O169        O  0.48404389  0.27009207  0.51169772    -0.74440
O170        O  0.00589445  0.21889725  0.60018326    -0.74420
O171        O  0.00108120  0.28281701  0.59825767    -0.74400
O172        O  0.48939321  0.20743091  0.51421313    -0.74460
Ni173      Ni  0.05778798  0.28188758  0.53937108     1.25410
Ni174      Ni  0.49294491  0.24361836  0.55670794     1.25360
C175        C  0.01750308  0.21318399  0.49185500     0.87800
C176        C  0.03372988  0.31247581  0.60456143     0.87740
C177        C  0.03961778  0.22729664  0.60554170     0.87760
C178        C  0.01052534  0.29688324  0.48958869     0.87940
O179        O  0.21862801  0.24616440  0.57552869    -0.74370
O180        O  0.29794662  0.30910582  0.49693952    -0.74410
O181        O  0.23107709  0.24155480  0.49046101    -0.74460
O182        O  0.28457904  0.31385247  0.58302565    -0.74510
O183        O  0.31372313  0.28337689  0.60070672    -0.74440
O184        O  0.25973251  0.21055218  0.50798377    -0.74420
O185        O  0.32613404  0.27784725  0.51562558    -0.74400
O186        O  0.24756153  0.21556242  0.59391792    -0.74460
Ni187      Ni  0.25714275  0.27891468  0.53586715     1.25410
Ni188      Ni  0.28778740  0.24570781  0.55513244     1.25360
C189        C  0.21991964  0.22019385  0.59692434     0.87800
C190        C  0.32529837  0.30383420  0.49392229     0.87740
C191        C  0.23593328  0.21360206  0.48472717     0.87760
C192        C  0.30791207  0.31070080  0.60693362     0.87940
C193        C  0.37142647  0.40758910  0.69193326    -0.05410
C194        C  0.33234324  0.38489338  0.69566031    -0.32840
C195        C  0.31125843  0.35211734  0.66948072     0.36410
C196        C  0.32929688  0.34014806  0.64090200    -0.05770
C197        C  0.36845414  0.36022915  0.64066550    -0.32740
C198        C  0.38959926  0.39429637  0.66509928     0.36310
H199        H  0.31781292  0.39491259  0.71546808     0.16680
O200        O  0.27297027  0.33290317  0.67060303    -0.60240
H201        H  0.38262405  0.35157673  0.61829639     0.16700
O202        O  0.42721684  0.41692312  0.65767403    -0.60340
H203        H  0.43820260  0.40253080  0.66946857     0.43690
H204        H  0.26595688  0.34785131  0.65194335     0.43650
C205        C  0.37389675  0.46876072  0.67965400    -0.05410
C206        C  0.37729780  0.47056957  0.63417894    -0.32840
C207        C  0.35735962  0.48195697  0.60902951     0.36410
C208        C  0.33473463  0.49319517  0.62917967    -0.05770
C209        C  0.33269183  0.49347151  0.67493139    -0.32740
C210        C  0.35197760  0.48085334  0.70039749     0.36310
H211        H  0.39390870  0.46105952  0.61795577     0.16680
O212        O  0.35914035  0.48081572  0.56446599    -0.60240
H213        H  0.31470206  0.00145017  0.69065135     0.16700
O214        O  0.34700371  0.47746838  0.74481591    -0.60340
H215        H  0.35779265  0.00390801  0.75631936     0.43690
H216        H  0.34065973  0.45383004  0.55610940     0.43650
C217        C  0.18808731  0.19410518  0.62372589    -0.05410
C218        C  0.15445100  0.16788122  0.60264944    -0.32840
C219        C  0.12200817  0.14606842  0.62672470     0.36410
C220        C  0.12308587  0.15050498  0.67252107    -0.05770
C221        C  0.15742664  0.17489759  0.69386269    -0.32740
C222        C  0.19003023  0.19649513  0.66961946     0.36310
H223        H  0.15301522  0.16545409  0.56729027     0.16680
O224        O  0.08888854  0.12193048  0.60517689    -0.60240
H225        H  0.15839124  0.17946216  0.72892139     0.16700
O226        O  0.22281655  0.22223084  0.69070181    -0.60340
H227        H  0.23547623  0.20800166  0.69631213     0.43690
H228        H  0.08227493  0.13884032  0.58993189     0.43650
C229        C  0.06971933  0.16024319  0.68260731    -0.05410
C230        C  0.09144601  0.20047197  0.68463172    -0.32840
C231        C  0.08100875  0.22268705  0.66145768     0.36650
C232        C  0.04785403  0.20491673  0.63630840    -0.05770
C233        C  0.02432355  0.16483279  0.63730436    -0.32740
C234        C  0.03539704  0.14241468  0.65939546     0.36310
H235        H  0.11799902  0.21477209  0.70203553     0.16680
O236        O  0.10429492  0.26175336  0.66205892    -0.60240
H237        H  0.99865571  0.15065916  0.61814221     0.16700
O238        O  0.01379335  0.10324933  0.65569052    -0.60340
H239        H  0.01682910  0.09701573  0.62519474     0.43690
H240        H  0.09589538  0.27076137  0.68708300     0.43650
C241        C  0.12672850  0.47289271  0.67829805    -0.05410
C242        C  0.15713419  0.47430704  0.69966043    -0.32840
C243        C  0.18980320  0.48433328  0.67653943     0.36410
C244        C  0.19197104  0.49288959  0.63179607    -0.05770
C245        C  0.16240010  0.49336004  0.61132217    -0.32740
C246        C  0.13016424  0.48385093  0.63428419     0.36310
H247        H  0.15466503  0.46550247  0.73339106     0.16680
O248        O  0.21870906  0.48424385  0.69734984    -0.60240
H249        H  0.16376976  0.99980036  0.57687063     0.16700
O250        O  0.10092708  0.48254548  0.61248053    -0.60340
H251        H  0.10293926  0.00711240  0.61981439     0.43690
H252        H  0.21356743  0.45792659  0.69308606     0.43650
C253        C  0.06534116  0.41108757  0.68327513    -0.05410
C254        C  0.07908655  0.38735149  0.69307628    -0.32840
C255        C  0.06718112  0.35370646  0.66919373     0.36410
C256        C  0.03976351  0.34229032  0.63633226    -0.05770
C257        C  0.02301414  0.36375224  0.62953049    -0.32740
C258        C  0.03596722  0.39836587  0.65253520     0.36310
H259        H  0.10155074  0.39660264  0.71680692     0.16680
O260        O  0.08374945  0.33304213  0.67672708    -0.60240
H261        H  0.00221099  0.35542853  0.60380422     0.16700
O262        O  0.02270039  0.42135855  0.64138961    -0.60340
H263        H  0.49812882  0.40990727  0.65579329     0.43690
H264        H  0.10756557  0.34639548  0.66047619     0.43650
C265        C  0.38403048  0.41690182  0.91923039    -0.05410
C266        C  0.39380290  0.41649926  0.96290901    -0.32840
C267        C  0.37252807  0.38390852  0.98805024     0.36410
C268        C  0.34141005  0.35129623  0.96923886    -0.05770
C269        C  0.33359356  0.35044449  0.92452506    -0.32740
C270        C  0.35494910  0.38311535  0.89932660     0.36310
H271        H  0.41602220  0.44243496  0.97847954     0.16680
O272        O  0.38121732  0.38462979  0.03147994    -0.60240
H273        H  0.30976890  0.32524082  0.90979934     0.16700
O274        O  0.34480206  0.38304148  0.85659623    -0.60340
H275        H  0.36108131  0.37729627  0.83911946     0.43690
H276        H  0.37711707  0.40407836  0.04514719     0.43650
C277        C  0.33237394  0.49288266  0.96354636    -0.05410
C278        C  0.37146126  0.51433117  0.96778195    -0.32840
C279        C  0.39328657  0.50412578  0.94381175     0.36410
C280        C  0.37599672  0.47283475  0.91429384    -0.05770
C281        C  0.33720073  0.45380079  0.90725374    -0.32740
C282        C  0.31539598  0.46356587  0.93173981     0.36310
H283        H  0.38486067  0.53718330  0.99201928     0.16680
O284        O  0.43106307  0.52295971  0.95180379    -0.60240
H285        H  0.32345809  0.42979156  0.88458546     0.16700
O286        O  0.27735739  0.44320798  0.92571637    -0.60340
H287        H  0.27232236  0.45861568  0.90523892     0.43690
H288        H  0.43391144  0.51170295  0.97900531     0.43650
C289        C  0.06658744  0.40721987  0.90304168    -0.05410
C290        C  0.08430095  0.38628375  0.89941011    -0.32840
C291        C  0.07269597  0.35357024  0.92424806     0.36410
C292        C  0.04173674  0.34003882  0.95174557    -0.05770
C293        C  0.02070445  0.35756050  0.95074666    -0.32740
C294        C  0.03331326  0.39149044  0.92737318     0.36310
H295        H  0.11000683  0.39794651  0.88122578     0.16680
O296        O  0.09354425  0.33678427  0.92398050    -0.60240
H297        H  0.99667352  0.34728986  0.97169991     0.16700
O298        O  0.01542220  0.41114882  0.93266532    -0.60340
H299        H  0.02209688  0.42245291  0.96256639     0.43690
H300        H  0.08047970  0.31493724  0.90306915     0.43650
C301        C  0.19089583  0.49053274  0.97025776    -0.05410
C302        C  0.15641236  0.47422535  0.99083934    -0.32840
C303        C  0.12425176  0.46434889  0.96714889     0.36410
C304        C  0.12589242  0.46881952  0.92143620    -0.05770
C305        C  0.16073686  0.48612227  0.90071082    -0.32740
C306        C  0.19345846  0.99789313  0.92519944     0.36310
H307        H  0.15426880  0.46848534  0.02557087     0.16680
O308        O  0.09111584  0.44977026  0.98886073    -0.60240
H309        H  0.16232020  0.48892530  0.86548039     0.16700
O310        O  0.22710015  0.01361791  0.90446112    -0.60340
H311        H  0.23734117  0.04156907  0.90469120     0.43690
H312        H  0.08532830  0.42474075  0.00040519     0.43650
C313        C  0.19504999  0.20762342  0.96003663    -0.05410
C314        C  0.18159071  0.22645252  0.93511671    -0.32840
C315        C  0.14864257  0.20575352  0.91032867     0.36410
C316        C  0.12762237  0.16536816  0.91119962    -0.05770
C317        C  0.14238751  0.14648521  0.93389537    -0.32740
C318        C  0.17622136  0.16735779  0.95753300     0.36310
H319        H  0.19593158  0.25741765  0.93625849     0.16680
O320        O  0.13560233  0.22537657  0.88815405    -0.60240
H321        H  0.12630102  0.11556642  0.93611520     0.16700
O322        O  0.18840746  0.14802059  0.98181894    -0.60340
H323        H  0.20398707  0.14332224  0.96164573     0.43690
H324        H  0.14167898  0.22440704  0.85706948     0.43650
C325        C  0.06449490  0.15672059  0.92166099    -0.05410
C326        C  0.05048435  0.17662791  0.89980421    -0.32840
C327        C  0.03677479  0.19589067  0.92361658     0.36410
C328        C  0.03819127  0.19615136  0.96953669    -0.05770
C329        C  0.05026863  0.17464980  0.99116211    -0.32740
C330        C  0.06287192  0.15457507  0.96759305     0.36310
H331        H  0.05250613  0.17936344  0.86457880     0.16680
O332        O  0.02538025  0.21717514  0.90197635    -0.60240
H333        H  0.05129554  0.17466722  0.02655098     0.16700
O334        O  0.07620435  0.13526876  0.98989206    -0.60340
H335        H  0.05553973  0.10805498  0.98893533     0.43690
H336        H  0.49804715  0.19973802  0.89764058     0.43650
C337        C  0.48368763  0.11703643  0.40916428    -0.05410
C338        C  0.99091856  0.11557124  0.45370312    -0.32840
C339        C  0.00504904  0.14802487  0.48030059     0.36410
C340        C  0.51259604  0.18263984  0.46229928    -0.05770
C341        C  0.50992865  0.18549022  0.41685660    -0.32740
C342        C  0.49538485  0.15257979  0.38998985     0.36310
H343        H  0.98215282  0.08831602  0.46867948     0.16680
O344        O  0.00816519  0.14485922  0.52454298    -0.60240
H345        H  0.51632497  0.21236772  0.40276873     0.16700
O346        O  0.49049588  0.15469945  0.34586190    -0.60340
H347        H  0.47357555  0.16456739  0.34284958     0.43690
H348        H  0.03479689  0.15364389  0.52982245     0.43650
C349        C  0.41692921  0.06294108  0.40716914    -0.05410
C350        C  0.40118394  0.02903887  0.43151423    -0.32840
C351        C  0.36778086  0.01531222  0.45453225     0.36410
C352        C  0.35187420  0.03793940  0.45788456    -0.05770
C353        C  0.36707775  0.07157490  0.43357414    -0.32740
C354        C  0.39863618  0.08356800  0.40754757     0.36310
H355        H  0.41549358  0.01375095  0.43480975     0.16680
O356        O  0.35095625  0.48017963  0.47428744    -0.60240
H357        H  0.35461883  0.08888480  0.43506847     0.16700
O358        O  0.41174245  0.11588730  0.38305103    -0.60340
H359        H  0.42123308  0.13740627  0.40445272     0.43690
H360        H  0.37095996  0.47583176  0.48396568     0.43650
C361        C  0.42055070  0.05493789  0.18257245    -0.05410
C362        C  0.38743317  0.04426169  0.20483342    -0.32840
C363        C  0.35397099  0.03067356  0.18124017     0.36410
C364        C  0.35393830  0.02767885  0.13539779    -0.05770
C365        C  0.38622364  0.03507727  0.11387960    -0.32740
C366        C  0.41933144  0.04827271  0.13719283     0.36310
H367        H  0.38816981  0.04924373  0.23978069     0.16680
O368        O  0.32217682  0.02258999  0.20277109    -0.60240
H369        H  0.38616837  0.03237343  0.07856551     0.16700
O370        O  0.45119322  0.05776311  0.11483041    -0.60340
H371        H  0.45443333  0.03572064  0.11859784     0.43690
H372        H  0.32277296  0.04704551  0.20371741     0.43650
C373        C  0.47782693  0.12065604  0.18848516    -0.05410
C374        C  0.01018244  0.13555413  0.16309770    -0.32840
C375        C  0.02310195  0.16938786  0.13948925     0.36410
C376        C  0.50270716  0.18779662  0.13968701    -0.05770
C377        C  0.47193673  0.17430978  0.16717362    -0.32740
C378        C  0.46003755  0.14165521  0.19217412     0.36310
H379        H  0.02390858  0.11965815  0.15897997     0.16680
O380        O  0.05340219  0.18196648  0.11292706    -0.60240
H381        H  0.45628312  0.18845079  0.16815179     0.16700
O382        O  0.42918300  0.12892518  0.21785682    -0.60340
H383        H  0.43911507  0.13646446  0.24816162     0.43690
H384        H  0.07540878  0.19867113  0.13189997     0.43650
C385        C  0.42083786  0.36126135  0.41297578    -0.05410
C386        C  0.42447767  0.36690090  0.45849149    -0.32840
C387        C  0.39303144  0.35001130  0.48497146     0.36410
C388        C  0.35721354  0.32807269  0.46597986    -0.05770
C389        C  0.35320980  0.32442319  0.42033981    -0.32740
C390        C  0.38490378  0.34071299  0.39367853     0.36310
H391        H  0.45194013  0.38266016  0.47376328     0.16680
O392        O  0.39754374  0.35394926  0.52957865    -0.60240
H393        H  0.32571272  0.30669938  0.40558614     0.16700
O394        O  0.38075957  0.33313821  0.34950176    -0.60340
H395        H  0.36677842  0.34465955  0.33817460     0.43690
H396        H  0.40305817  0.33428119  0.53866278     0.43650
C397        C  0.47610870  0.35434759  0.40242984    -0.05410
C398        C  0.45724588  0.31424061  0.40227039    -0.32840
C399        C  0.46909275  0.29522146  0.42926776     0.36410
C400        C  0.50109386  0.31629420  0.45606013    -0.05770
C401        C  0.02177032  0.35639815  0.45374895    -0.32740
C402        C  0.00916007  0.37556857  0.42776593     0.36310
H403        H  0.43137043  0.29755504  0.38380438     0.16680
O404        O  0.44860062  0.25596041  0.43015144    -0.60240
H405        H  0.04604044  0.37298730  0.47480690     0.16700
O406        O  0.02635222  0.41462062  0.43174168    -0.60340
H407        H  0.05242716  0.42528251  0.42205460     0.43690
H408        H  0.42698755  0.24923211  0.44911638     0.43650
C409        C  0.35588440  0.32894617  0.14169291    -0.05410
C410        C  0.37063528  0.31123302  0.16621463    -0.32840
C411        C  0.40436910  0.33306810  0.18942799     0.36410
C412        C  0.42502967  0.37343566  0.18654850    -0.05770
C413        C  0.40843457  0.39114501  0.16523415    -0.32740
C414        C  0.37338630  0.36909551  0.14438132     0.36310
H415        H  0.35669852  0.28029308  0.16600803     0.16680
O416        O  0.41796106  0.31471139  0.21326839    -0.60240
H417        H  0.42371471  0.42198371  0.16210189     0.16700
O418        O  0.35823310  0.38722902  0.12340107    -0.60340
H419        H  0.34322431  0.39055290  0.14585624     0.43690
H420        H  0.42265823  0.29949987  0.19179692     0.43650
C421        C  0.48618719  0.37938603  0.17090321    -0.05410
C422        C  0.99920204  0.35859840  0.19290063    -0.32840
C423        C  0.01013290  0.33671529  0.16939548     0.36410
C424        C  0.50690539  0.33458519  0.12357048    -0.05770
C425        C  0.49536763  0.35641415  0.10155959    -0.32740
C426        C  0.48519626  0.37884914  0.12485711     0.36310
H427        H  0.99847852  0.35725234  0.22826791     0.16680
O428        O  0.02081865  0.31503918  0.19149904    -0.60240
H429        H  0.49316730  0.35514523  0.06615627     0.16700
O430        O  0.47292949  0.39910807  0.10249279    -0.60340
H431        H  0.44749160  0.37975648  0.09160388     0.43690
H432        H  0.04827224  0.33186384  0.19537811     0.43650
C433        C  0.17943431  0.11930713  0.18924550    -0.05410
C434        C  0.15894177  0.13238955  0.16693432    -0.32840
C435        C  0.17740054  0.16621223  0.14256183     0.36410
C436        C  0.21656270  0.18633774  0.13905073    -0.05770
C437        C  0.23690645  0.17447490  0.16323903    -0.32740
C438        C  0.21880380  0.14148608  0.18818216     0.36310
H439        H  0.12872320  0.11528972  0.16593627     0.16680
O440        O  0.15683107  0.17725252  0.11913883    -0.60240
H441        H  0.26713209  0.19002314  0.16130181     0.16700
O442        O  0.23989035  0.13024745  0.21022010    -0.60340
H443        H  0.25050457  0.12153768  0.18731657     0.43690
H444        H  0.15305255  0.19382939  0.13948152     0.43650
C445        C  0.20983596  0.02683322  0.13634274    -0.05410
C446        C  0.21233364  0.02795319  0.18223718    -0.32840
C447        C  0.19407239  0.04225576  0.20711795     0.36410
C448        C  0.17261946  0.05475629  0.18573309    -0.05770
C449        C  0.16773901  0.05021794  0.14025391    -0.32740
C450        C  0.18633841  0.03678080  0.11554630     0.36310
H451        H  0.23043182  0.02034414  0.19850049     0.16680
O452        O  0.19928297  0.04624212  0.25163452    -0.60240
H453        H  0.15148305  0.05986049  0.12336828     0.16700
O454        O  0.18396825  0.03647331  0.07070015    -0.60340
H455        H  0.15693413  0.02068857  0.06330377     0.43690
H456        H  0.22497491  0.06853324  0.25639726     0.43650
C457        C  0.16740660  0.11356555  0.40655657    -0.05410
C458        C  0.15089773  0.12992126  0.43084306    -0.32840
C459        C  0.17317460  0.16490806  0.45314298     0.36410
C460        C  0.21242890  0.18317723  0.45254336    -0.05770
C461        C  0.22877955  0.16887356  0.42488579    -0.32740
C462        C  0.20655508  0.13492953  0.40104246     0.36310
H463        H  0.12105162  0.11378500  0.43632876     0.16680
O464        O  0.15637249  0.17840305  0.47973597    -0.60240
H465        H  0.25893107  0.18307031  0.42342280     0.16700
O466        O  0.22368059  0.12063873  0.37627296    -0.60340
H467        H  0.21922491  0.12472970  0.34548537     0.43690
H468        H  0.15098154  0.19433274  0.46060468     0.43650
C469        C  0.20869426  0.03306416  0.46979846    -0.05410
C470        C  0.18959997  0.04736528  0.49211770    -0.32840
C471        C  0.16634384  0.05623346  0.46962295     0.36410
C472        C  0.16285417  0.05196069  0.42379825    -0.05770
C473        C  0.18105341  0.03638136  0.40147302    -0.32740
C474        C  0.20324981  0.02601531  0.42449610     0.36310
H475        H  0.19326147  0.05236039  0.52714905     0.16680
O476        O  0.14786052  0.07014302  0.49245116    -0.60240
H477        H  0.17975845  0.03428486  0.36610061     0.16700
O478        O  0.22174135  0.51195854  0.40215275    -0.60340
H479        H  0.20400553  0.48386625  0.40060207     0.43690
H480        H  0.16752756  0.09587270  0.50342034     0.43650
C481        C  0.11353283  0.55061219  0.37816797     0.00620
C482        C  0.14680708  0.57122348  0.39953477     0.00620
C483        C  0.13334454  0.56599049  0.23628431     0.00620
C484        C  0.16122638  0.57980051  0.20696528     0.00620
O485        O  0.10909163  0.98977960  0.34806794    -0.74370
O486        O  0.04215628  0.92816533  0.24604087    -0.74410
O487        O  0.11515783  0.99592117  0.25453287    -0.74460
O488        O  0.03569082  0.91650330  0.33690946    -0.74510
O489        O  0.00762365  0.94145195  0.30720167    -0.74440
O490        O  0.10053044  0.02937219  0.29257079    -0.74420
O491        O  0.04428577  0.98158544  0.23882950    -0.74400
O492        O  0.05959221  0.98961636  0.36352330    -0.74460
Ni493      Ni  0.07819099  0.95447311  0.29645923     1.25410
Ni494      Ni  0.05170477  0.98762105  0.30085532     1.25360
C495        C  0.09415436  0.00603288  0.36969708     0.87800
C496        C  0.02789292  0.94666182  0.22875302     0.87740
C497        C  0.11869746  0.02880629  0.26182513     0.87760
C498        C  0.00506834  0.91695470  0.33237776     0.87940
C499        C  0.46638539  0.89498269  0.19512704     0.00620
C500        C  0.48583339  0.92829871  0.21882689     0.00620
C501        C  0.46705823  0.89908868  0.35639388     0.00620
C502        C  0.45485668  0.87195250  0.38742859     0.00620
C503        C  0.47275579  0.56530639  0.22907347     0.00620
C504        C  0.45747297  0.58015615  0.20346937     0.00620
C505        C  0.46632760  0.55980804  0.36439615     0.00620
C506        C  0.45543725  0.58041402  0.38801774     0.00620
O507        O  0.03517302  0.61039747  0.34167867    -0.74370
O508        O  0.11362269  0.61347129  0.26108611    -0.74410
O509        O  0.04021429  0.61539669  0.25584671    -0.74460
O510        O  0.10396603  0.60463864  0.34842364    -0.74510
O511        O  0.06471820  0.54415037  0.33577921    -0.74440
O512        O  0.02084703  0.55644677  0.23841260    -0.74420
O513        O  0.07369735  0.55335743  0.24442398    -0.74400
O514        O  0.01341801  0.55019837  0.33635499    -0.74460
Ni515      Ni  0.07564410  0.61487522  0.30159221     1.25410
Ni516      Ni  0.04183534  0.54964918  0.28859805     1.25360
C517        C  0.00786449  0.57594802  0.34864352     0.87800
C518        C  0.10677735  0.58116193  0.24383970     0.87740
C519        C  0.01512242  0.58312361  0.23728008     0.87760
C520        C  0.09367866  0.56910838  0.35506823     0.87940
O521        O  0.45929029  0.50171188  0.37166358    -0.74370
O522        O  0.48870373  0.97794192  0.26510485    -0.74410
O523        O  0.46954608  0.52834114  0.28463473    -0.74460
O524        O  0.47740888  0.95936141  0.35393319    -0.74510
O525        O  0.41898445  0.91878835  0.33512876    -0.74440
O526        O  0.42116740  0.99363841  0.24594155    -0.74420
O527        O  0.43150022  0.93065344  0.25001827    -0.74400
O528        O  0.41270042  0.99362108  0.33503940    -0.74460
Ni529      Ni  0.47569783  0.99333386  0.31822503     1.25410
Ni530      Ni  0.41612071  0.95603897  0.29239276     1.25360
C531        C  0.44079475  0.01538592  0.36151932     0.87800
C532        C  0.46695101  0.94661685  0.24407076     0.87740
C533        C  0.45079193  0.02649841  0.25290299     0.87760
C534        C  0.45094803  0.92548092  0.35158416     0.87940
C535        C  0.08716719  0.64439993  0.89810306     0.00620
C536        C  0.07071921  0.61339781  0.87096158     0.00620
C537        C  0.08041567  0.96996864  0.87127085     0.00620
C538        C  0.09053945  0.94931917  0.89543042     0.00620
C539        C  0.39626418  0.95418497  0.89951107     0.00620
C540        C  0.42532057  0.97117953  0.87220298     0.00620
C541        C  0.07657486  0.96942652  0.72358002     0.00620
C542        C  0.08874663  0.95180294  0.69727525     0.00620
O543        O  0.13103593  0.53856680  0.74841646    -0.74370
O544        O  0.12675263  0.60479629  0.84733024    -0.74410
O545        O  0.13604650  0.53487189  0.84354334    -0.74460
O546        O  0.12663155  0.60512927  0.75830876    -0.74510
O547        O  0.07276767  0.55197373  0.74866014    -0.74440
O548        O  0.08756804  0.53007401  0.86904648    -0.74420
O549        O  0.06874171  0.56830686  0.82932733    -0.74400
O550        O  0.08780706  0.49832104  0.78807039    -0.74460
Ni551      Ni  0.13595272  0.57402557  0.80019456     1.25410
Ni552      Ni  0.07631830  0.53447581  0.80799830     1.25360
C553        C  0.10296915  0.50384965  0.75308723     0.87800
C554        C  0.09211729  0.59691824  0.84909784     0.87740
C555        C  0.10642794  0.51518541  0.86783345     0.87760
C556        C  0.09369358  0.58829999  0.74080760     0.87940
C557        C  0.08797932  0.63875726  0.69562666     0.00620
C558        C  0.07399385  0.61073480  0.72582908     0.00620
C559        C  0.42242011  0.97000124  0.72513700     0.00620
C560        C  0.38954282  0.94902570  0.70340252     0.00620
O561        O  0.43921682  0.53887529  0.84751443    -0.74370
O562        O  0.50996681  0.60396622  0.74895640    -0.74410
O563        O  0.43157631  0.53414838  0.75253107    -0.74460
O564        O  0.51177969  0.60715713  0.83907773    -0.74510
O565        O  0.01006759  0.55436273  0.85239801    -0.74440
O566        O  0.47706467  0.53061305  0.73016196    -0.74420
O567        O  0.03456989  0.57410205  0.77534440    -0.74400
O568        O  0.44344205  0.49893161  0.80847485    -0.74460
Ni569      Ni  0.47041240  0.57427110  0.79655544     1.25410
Ni570      Ni  0.49177095  0.53680757  0.79200806     1.25360
C571        C  0.43285911  0.50442655  0.84275774     0.87800
C572        C  0.03789002  0.59825988  0.75023006     0.87740
C573        C  0.44260486  0.51503581  0.72939557     0.87760
C574        C  0.02742559  0.59103423  0.85808942     0.87940
O575        O  0.03110546  0.98068479  0.74732883    -0.74370
O576        O  0.48294748  0.98266683  0.84955796    -0.74410
O577        O  0.03824837  0.97991933  0.83599035    -0.74460
O578        O  0.47470115  0.98033981  0.76121165    -0.74510
O579        O  0.43788407  0.91935026  0.75456901    -0.74440
O580        O  0.51228650  0.91914111  0.84147140    -0.74420
O581        O  0.44106126  0.92147532  0.84398536    -0.74400
O582        O  0.51039102  0.91975826  0.75239970    -0.74460
Ni583      Ni  0.50733975  0.98191530  0.79857355     1.25410
Ni584      Ni  0.47334632  0.91606134  0.79812556     1.25360
C585        C  0.03534904  0.95342303  0.73786459     0.87800
C586        C  0.45073181  0.95547273  0.85871104     0.87740
C587        C  0.04075397  0.95328258  0.84980729     0.87760
C588        C  0.44488011  0.95353608  0.74648345     0.87940
O589        O  0.32724862  0.78087949  0.08590201    -0.74370
O590        O  0.25171678  0.72324756  0.99790044    -0.74410
O591        O  0.31919957  0.79050130  0.00001384    -0.74460
O592        O  0.26108707  0.71408491  0.08348922    -0.74510
O593        O  0.23116976  0.74371880  0.10157018    -0.74440
O594        O  0.29175651  0.82237640  0.01956771    -0.74420
O595        O  0.22441493  0.75557845  0.01556002    -0.74400
O596        O  0.29846784  0.81143296  0.10498746    -0.74460
Ni597      Ni  0.29076441  0.75105723  0.04109120     1.25410
Ni598      Ni  0.26031131  0.78430766  0.06101556     1.25360
C599        C  0.32544633  0.80578012  0.10966620     0.87800
C600        C  0.22545296  0.72997570  0.99245479     0.87740
C601        C  0.31584308  0.81954889  0.99710583     0.87760
C602        C  0.23690726  0.71622620  0.10638896     0.87940
O603        O  0.48271649  0.71377919  0.08449408    -0.74370
O604        O  0.00086751  0.78363433  0.99170813    -0.74410
O605        O  0.99924320  0.71673988  0.99864256    -0.74460
O606        O  0.48455103  0.78075848  0.07678985    -0.74510
O607        O  0.04514579  0.81287114  0.09521762    -0.74440
O608        O  0.05988155  0.74914973  0.01695174    -0.74420
O609        O  0.06160182  0.81574426  0.00917217    -0.74400
O610        O  0.04347377  0.74570062  0.10181586    -0.74460
Ni611      Ni  0.48964824  0.74750914  0.03737639     1.25410
Ni612      Ni  0.05469370  0.78211942  0.05642896     1.25360
C613        C  0.01007911  0.71753951  0.10751702     0.87800
C614        C  0.03432872  0.81142913  0.98547036     0.87740
C615        C  0.03201127  0.72216280  0.99574432     0.87760
C616        C  0.01250704  0.80779901  0.09790001     0.87940
O617        O  0.29438099  0.48697576  0.10291629    -0.74370
O618        O  0.21949291  0.96971900  0.01923526    -0.74410
O619        O  0.28411944  0.97035991  0.01620699    -0.74460
O620        O  0.22957947  0.48682078  0.10515378    -0.74510
O621        O  0.25976560  0.54853605  0.08713493    -0.74440
O622        O  0.31672631  0.53288899  0.00202839    -0.74420
O623        O  0.25148728  0.53145645  0.00108913    -0.74400
O624        O  0.32495598  0.54938702  0.08790599    -0.74460
Ni625      Ni  0.25583647  0.97621504  0.06144134     1.25410
Ni626      Ni  0.28938042  0.54282243  0.04411946     1.25360
C627        C  0.32234659  0.52102250  0.10838338     0.87800
C628        C  0.22275097  0.99760650  0.99715567     0.87740
C629        C  0.30969881  0.99897653  0.99507728     0.87760
C630        C  0.23478232  0.52036764  0.10917964     0.87940
O631        O  0.25239798  0.53374499  0.60281408    -0.74370
O632        O  0.32484224  0.55595496  0.51400934    -0.74410
O633        O  0.25943999  0.55403826  0.51882768    -0.74460
O634        O  0.31754824  0.53503588  0.59922157    -0.74510
O635        O  0.28540997  0.97346516  0.57849871    -0.74440
O636        O  0.22949894  0.49311344  0.49569660    -0.74420
O637        O  0.29474169  0.49433009  0.49401196    -0.74400
O638        O  0.22026330  0.97268153  0.58019655    -0.74460
Ni639      Ni  0.28981285  0.54690941  0.55943058     1.25410
Ni640      Ni  0.25641657  0.98116884  0.53643746     1.25360
C641        C  0.22361055  0.99986947  0.60465656     0.87800
C642        C  0.32209029  0.52889430  0.48981717     0.87740
C643        C  0.23431366  0.52652959  0.49512397     0.87760
C644        C  0.31101980  0.00097792  0.60168828     0.87940
O645        O  0.04957564  0.74384026  0.49645665    -0.74370
O646        O  0.06194731  0.81730055  0.58322903    -0.74410
O647        O  0.06628532  0.75387497  0.58325805    -0.74460
O648        O  0.04466469  0.80720531  0.49669802    -0.74510
O649        O  0.48404571  0.77008607  0.51171281    -0.74440
O650        O  0.00590243  0.71888912  0.60019034    -0.74420
O651        O  0.00108958  0.78280905  0.59827150    -0.74400
O652        O  0.48939343  0.70742382  0.51422204    -0.74460
Ni653      Ni  0.05779127  0.78187958  0.53937582     1.25410
Ni654      Ni  0.49294957  0.74361103  0.55671946     1.25360
C655        C  0.01750095  0.71317654  0.49185944     0.87800
C656        C  0.03373868  0.81246769  0.60457287     0.87740
C657        C  0.03962631  0.72728893  0.60554453     0.87760
C658        C  0.01052578  0.79687700  0.48960178     0.87940
O659        O  0.21864216  0.74617433  0.57552816    -0.74370
O660        O  0.29795355  0.80911576  0.49692997    -0.74410
O661        O  0.23108266  0.74156406  0.49045711    -0.74460
O662        O  0.28459252  0.81386228  0.58301788    -0.74510
O663        O  0.31373890  0.78338763  0.60069236    -0.74440
O664        O  0.25973937  0.71056120  0.50797236    -0.74420
O665        O  0.32614194  0.77785655  0.51560896    -0.74400
O666        O  0.24757792  0.71557280  0.59390942    -0.74460
Ni667      Ni  0.25715266  0.77892430  0.53586166     1.25410
Ni668      Ni  0.28779923  0.74571767  0.55511924     1.25360
C669        C  0.21993691  0.72020485  0.59692240     0.87800
C670        C  0.32530533  0.80384442  0.49390913     0.87740
C671        C  0.23593744  0.71361068  0.48472057     0.87760
C672        C  0.30792722  0.81071086  0.60692258     0.87940
C673        C  0.37143811  0.90759697  0.69192610    -0.05410
C674        C  0.33235507  0.88489938  0.69565282    -0.32840
C675        C  0.31127176  0.85212385  0.66947214     0.36410
C676        C  0.32931159  0.84015714  0.64089203    -0.05770
C677        C  0.36846888  0.86024067  0.64065477    -0.32740
C678        C  0.38961237  0.89430747  0.66508977     0.36310
H679        H  0.31782355  0.89491597  0.71546253     0.16680
O680        O  0.27298349  0.83290743  0.67059500    -0.60240
H681        H  0.38263985  0.85159035  0.61828470     0.16700
O682        O  0.42722974  0.91693642  0.65766478    -0.60340
H683        H  0.43821700  0.90254612  0.66946099     0.43690
H684        H  0.26596858  0.84785552  0.65193748     0.43650
C685        C  0.37390807  0.96877003  0.67966165    -0.05410
C686        C  0.37732131  0.97059692  0.63418843    -0.32840
C687        C  0.35738314  0.98198585  0.60904181     0.36410
C688        C  0.33474482  0.99320588  0.62919397    -0.05770
C689        C  0.33269035  0.99346536  0.67494517    -0.32740
C690        C  0.35197762  0.98084713  0.70040790     0.36310
H691        H  0.39394105  0.96109856  0.61796359     0.16680
O692        O  0.35917376  0.98085965  0.56447828    -0.60240
H693        H  0.31471327  0.50146971  0.69063653     0.16700
O694        O  0.34699492  0.97744709  0.74482437    -0.60340
H695        H  0.35779981  0.50393254  0.75629928     0.43690
H696        H  0.34069747  0.95387548  0.55611112     0.43650
C697        C  0.18810924  0.69411778  0.62373030    -0.05410
C698        C  0.15447536  0.66787944  0.60265974    -0.32840
C699        C  0.12203501  0.64606713  0.62673915     0.36410
C700        C  0.12311321  0.65051827  0.67253340    -0.05770
C701        C  0.15745270  0.67492418  0.69387064    -0.32740
C702        C  0.19005375  0.69652235  0.66962331     0.36310
H703        H  0.15303893  0.66544079  0.56730132     0.16680
O704        O  0.08891670  0.62191481  0.60519660    -0.60240
H705        H  0.15841719  0.67949731  0.72892769     0.16700
O706        O  0.22283836  0.72227114  0.69069964    -0.60340
H707        H  0.23550770  0.70805224  0.69631462     0.43690
H708        H  0.08229628  0.63881413  0.58993898     0.43650
C709        C  0.06973996  0.66024650  0.68261118    -0.05410
C710        C  0.09145958  0.70047531  0.68463944    -0.32840
C711        C  0.08101813  0.72268628  0.66146420     0.36650
C712        C  0.04786604  0.70491144  0.63631011    -0.05770
C713        C  0.02434253  0.66482672  0.63730067    -0.32740
C714        C  0.03542076  0.64241289  0.65939238     0.36310
H715        H  0.11801029  0.71477918  0.70204817     0.16680
O716        O  0.10429753  0.76175344  0.66206961    -0.60240
H717        H  0.99867695  0.65064995  0.61813443     0.16700
O718        O  0.01382457  0.60324730  0.65568313    -0.60340
H719        H  0.01685620  0.59701821  0.62518367     0.43690
H720        H  0.09589268  0.77075598  0.68709368     0.43650
C721        C  0.12672961  0.97289165  0.67829429    -0.05410
C722        C  0.15713823  0.97431470  0.69966016    -0.32840
C723        C  0.18980765  0.98434059  0.67654006     0.36410
C724        C  0.19197309  0.99288783  0.63179400    -0.05770
C725        C  0.16239861  0.99334877  0.61131585    -0.32740
C726        C  0.13016233  0.98384002  0.63427687     0.36310
H727        H  0.15467120  0.96551686  0.73339333     0.16680
O728        O  0.21871623  0.98425913  0.69735430    -0.60240
H729        H  0.16377335  0.49981895  0.57687902     0.16700
O730        O  0.10092191  0.98252485  0.61246945    -0.60340
H731        H  0.10294893  0.50713398  0.61983267     0.43690
H732        H  0.21357777  0.95794238  0.69309784     0.43650
C733        C  0.06534645  0.91108307  0.68327864    -0.05410
C734        C  0.07909977  0.88735333  0.69307777    -0.32840
C735        C  0.06719665  0.85370732  0.66919802     0.36410
C736        C  0.03977321  0.84228340  0.63634232    -0.05770
C737        C  0.02301613  0.86373828  0.62954393    -0.32740
C738        C  0.03596712  0.89835317  0.65254475     0.36310
H739        H  0.10156792  0.89661031  0.71680410     0.16680
O740        O  0.08377217  0.83304951  0.67672867    -0.60240
H741        H  0.00220821  0.85540839  0.60382214     0.16700
O742        O  0.02269286  0.92133950  0.64139988    -0.60340
H743        H  0.49811822  0.90987960  0.65579787     0.43690
H744        H  0.10758580  0.84640511  0.66047310     0.43650
C745        C  0.38402254  0.91688274  0.91922137    -0.05410
C746        C  0.39380259  0.91648035  0.96289682    -0.32840
C747        C  0.37252919  0.88389155  0.98804142     0.36410
C748        C  0.34140477  0.85128126  0.96923656    -0.05770
C749        C  0.33358020  0.85042872  0.92452511    -0.32740
C750        C  0.35493469  0.88309737  0.89932311     0.36310
H751        H  0.41602715  0.94241514  0.97846302     0.16680
O752        O  0.38122597  0.88461317  0.03146857    -0.60240
H753        H  0.30975066  0.82522635  0.90980438     0.16700
O754        O  0.34478154  0.88302252  0.85659518    -0.60340
H755        H  0.36106796  0.87729111  0.83911285     0.43690
H756        H  0.37712975  0.90406308  0.04513991     0.43650
C757        C  0.33237621  0.99287826  0.96353145    -0.05410
C758        C  0.37146303  0.01431996  0.96777186    -0.32840
C759        C  0.39328514  0.00410855  0.94380544     0.36410
C760        C  0.37599265  0.97281841  0.91428658    -0.05770
C761        C  0.33719780  0.95379144  0.90724135    -0.32740
C762        C  0.31539604  0.96356281  0.93172360     0.36310
H763        H  0.38486387  0.03717081  0.99201050     0.16680
O764        O  0.43106069  0.02293579  0.95180177    -0.60240
H765        H  0.32345350  0.92978362  0.88457143     0.16700
O766        O  0.27735797  0.94321223  0.92569557    -0.60340
H767        H  0.27232928  0.95862382  0.90521682     0.43690
H768        H  0.43390387  0.01167770  0.97900522     0.43650
C769        C  0.06659567  0.90721314  0.90302891    -0.05410
C770        C  0.08430981  0.88627742  0.89940071    -0.32840
C771        C  0.07270268  0.85356303  0.92423796     0.36410
C772        C  0.04174074  0.84003032  0.95173139    -0.05770
C773        C  0.02070871  0.85755216  0.95072945    -0.32740
C774        C  0.03331972  0.89148307  0.92735734     0.36310
H775        H  0.11001724  0.89794080  0.88121938     0.16680
O776        O  0.09355137  0.83677748  0.92397397    -0.60240
H777        H  0.99667621  0.84728110  0.97168016     0.16700
O778        O  0.01542889  0.91114175  0.93264871    -0.60340
H779        H  0.02210315  0.92244574  0.96254985     0.43690
H780        H  0.08048917  0.81493136  0.90306107     0.43650
C781        C  0.19090293  0.99053336  0.97024849    -0.05410
C782        C  0.15641833  0.97422142  0.99082826    -0.32840
C783        C  0.12425757  0.96434216  0.96713640     0.36410
C784        C  0.12589935  0.96881480  0.92142389    -0.05770
C785        C  0.16074497  0.98612337  0.90070060    -0.32740
C786        C  0.19345046  0.49788961  0.92520815     0.36310
H787        H  0.15427401  0.96847995  0.02555947     0.16680
O788        O  0.09112051  0.94975913  0.98884683    -0.60240
H789        H  0.16232954  0.98892918  0.86547048     0.16700
O790        O  0.22709096  0.51360903  0.90446812    -0.60340
H791        H  0.23733581  0.54156092  0.90469705     0.43690
H792        H  0.08533531  0.92473000  0.00038992     0.43650
C793        C  0.19504278  0.70761510  0.96005527    -0.05410
C794        C  0.18158331  0.72644413  0.93513561    -0.32840
C795        C  0.14863609  0.70574517  0.91034628     0.36410
C796        C  0.12761740  0.66535986  0.91121481    -0.05770
C797        C  0.14238169  0.64647683  0.93391193    -0.32740
C798        C  0.17621444  0.66734946  0.95755162     0.36310
H799        H  0.19592384  0.75740924  0.93627765     0.16680
O800        O  0.13559622  0.72536810  0.88817072    -0.60240
H801        H  0.12629595  0.61555783  0.93612923     0.16700
O802        O  0.18840031  0.64801234  0.98183814    -0.60340
H803        H  0.20397970  0.64331343  0.96166521     0.43690
H804        H  0.14167430  0.72439937  0.85708654     0.43650
C805        C  0.06448502  0.65670420  0.92166171    -0.05410
C806        C  0.05048094  0.67661654  0.89980300    -0.32840
C807        C  0.03677012  0.69587905  0.92361315     0.36410
C808        C  0.03817837  0.69613400  0.96953336    -0.05770
C809        C  0.05024686  0.67462541  0.99116037    -0.32740
C810        C  0.06285183  0.65455120  0.96759296     0.36310
H811        H  0.05251062  0.67935781  0.86457847     0.16680
O812        O  0.02538373  0.71716979  0.90197152    -0.60240
H813        H  0.05126702  0.67463812  0.02654937     0.16700
O814        O  0.07617752  0.63523945  0.98989350    -0.60340
H815        H  0.05551166  0.60802632  0.98892971     0.43690
H816        H  0.49805080  0.69973630  0.89762964     0.43650
C817        C  0.48366980  0.61703285  0.40915760    -0.05410
C818        C  0.99090046  0.61556247  0.45369526    -0.32840
C819        C  0.00503626  0.64801448  0.48029625     0.36410
C820        C  0.51258926  0.68263306  0.46229959    -0.05770
C821        C  0.50992075  0.68548762  0.41685785    -0.32740
C822        C  0.49537099  0.65257869  0.38998764     0.36310
H823        H  0.98213154  0.58830512  0.46866800     0.16680
O824        O  0.00815212  0.64484429  0.52453772    -0.60240
H825        H  0.51632094  0.71236765  0.40277370     0.16700
O826        O  0.49048198  0.65470287  0.34586064    -0.60340
H827        H  0.47356584  0.66457621  0.34285195     0.43690
H828        H  0.03478226  0.65362155  0.52981527     0.43650
C829        C  0.41691153  0.56293941  0.40715539    -0.05410
C830        C  0.40116878  0.52903947  0.43150417    -0.32840
C831        C  0.36776554  0.51531217  0.45452117     0.36410
C832        C  0.35185655  0.53793720  0.45786898    -0.05770
C833        C  0.36705731  0.57157052  0.43355479    -0.32740
C834        C  0.39861615  0.58356385  0.40752888     0.36310
H835        H  0.41548101  0.51375449  0.43480394     0.16680
O836        O  0.35096882  0.98017735  0.47429328    -0.60240
H837        H  0.35459657  0.58887880  0.43504666     0.16700
O838        O  0.41172138  0.61588150  0.38302954    -0.60340
H839        H  0.42121311  0.63740181  0.40442949     0.43690
H840        H  0.37097140  0.97582831  0.48397321     0.43650
C841        C  0.42053861  0.55493938  0.18258222    -0.05410
C842        C  0.38742353  0.54426902  0.20484544    -0.32840
C843        C  0.35396004  0.53067890  0.18125476     0.36410
C844        C  0.35392383  0.52767543  0.13541318    -0.05770
C845        C  0.38620647  0.53506728  0.11389377    -0.32740
C846        C  0.41931574  0.54826571  0.13720438     0.36310
H847        H  0.38816327  0.54925708  0.23979170     0.16680
O848        O  0.32216822  0.52260166  0.20278671    -0.60240
H849        H  0.38614823  0.53235702  0.07858021     0.16700
O850        O  0.45117547  0.55775081  0.11484049    -0.60340
H851        H  0.45441452  0.53570813  0.11861296     0.43690
H852        H  0.32276694  0.54705859  0.20372800     0.43650
C853        C  0.47781719  0.62065609  0.18848685    -0.05410
C854        C  0.01017152  0.63555057  0.16309791    -0.32840
C855        C  0.02309226  0.66938312  0.13948711     0.36410
C856        C  0.50269947  0.68779396  0.13968350    -0.05770
C857        C  0.47193019  0.67431083  0.16717119    -0.32740
C858        C  0.46003011  0.64165762  0.19217447     0.36310
H859        H  0.02389578  0.61965268  0.15898094     0.16680
O860        O  0.05339156  0.68195849  0.11292410    -0.60240
H861        H  0.45627837  0.68845376  0.16814834     0.16700
O862        O  0.42917712  0.62893144  0.21785892    -0.60340
H863        H  0.43911079  0.63647219  0.24816296     0.43690
H864        H  0.07539901  0.69866257  0.13189612     0.43650
C865        C  0.42084888  0.86126618  0.41297152    -0.05410
C866        C  0.42448568  0.86691177  0.45848627    -0.32840
C867        C  0.39303731  0.85002617  0.48496283     0.36410
C868        C  0.35722072  0.82808479  0.46596824    -0.05770
C869        C  0.35322030  0.82442961  0.42032833    -0.32740
C870        C  0.38491628  0.84071624  0.39367074     0.36310
H871        H  0.45194724  0.88267222  0.47376025     0.16680
O872        O  0.39754623  0.85396896  0.52957009    -0.60240
H873        H  0.32572440  0.80670324  0.40557270     0.16700
O874        O  0.38077549  0.83313664  0.34949497    -0.60340
H875        H  0.36679803  0.84465963  0.33816061     0.43690
H876        H  0.40305979  0.83430179  0.53866095     0.43650
C877        C  0.47611598  0.85434455  0.40243482    -0.05410
C878        C  0.45724542  0.81423701  0.40228550    -0.32840
C879        C  0.46908793  0.79521670  0.42928758     0.36410
C880        C  0.50109310  0.81628815  0.45607407    -0.05770
C881        C  0.02177638  0.85639171  0.45375373    -0.32740
C882        C  0.00917016  0.87556376  0.42776668     0.36310
H883        H  0.43136760  0.79755268  0.38382344     0.16680
O884        O  0.44858823  0.75595602  0.43018043    -0.60240
H885        H  0.04604998  0.87298030  0.47480684     0.16700
O886        O  0.02637013  0.91461712  0.43173403    -0.60340
H887        H  0.05244366  0.92527186  0.42204569     0.43690
H888        H  0.42697914  0.74923649  0.44914858     0.43650
C889        C  0.35588905  0.82894650  0.14169572    -0.05410
C890        C  0.37063959  0.81123338  0.16621820    -0.32840
C891        C  0.40437455  0.83306843  0.18942936     0.36410
C892        C  0.42503596  0.87343579  0.18654788    -0.05770
C893        C  0.40844126  0.89114542  0.16523330    -0.32740
C894        C  0.37339262  0.86909616  0.14438117     0.36310
H895        H  0.35670179  0.78029336  0.16601353     0.16680
O896        O  0.41796686  0.81471178  0.21326927    -0.60240
H897        H  0.42372230  0.92198403  0.16209959     0.16700
O898        O  0.35824099  0.88722997  0.12339808    -0.60340
H899        H  0.34323318  0.89055657  0.14585218     0.43690
H900        H  0.42266311  0.79949971  0.19179761     0.43650
C901        C  0.48619191  0.87938435  0.17089686    -0.05410
C902        C  0.99920792  0.85859667  0.19289185    -0.32840
C903        C  0.01013855  0.83671436  0.16938445     0.36410
C904        C  0.50690969  0.83458497  0.12355949    -0.05770
C905        C  0.49537016  0.85641349  0.10155097    -0.32740
C906        C  0.48519899  0.87884769  0.12485074     0.36310
H907        H  0.99848580  0.85725018  0.22825912     0.16680
O908        O  0.02082525  0.81503809  0.19148592    -0.60240
H909        H  0.49316815  0.85514471  0.06614778     0.16700
O910        O  0.47293065  0.89910623  0.10248858    -0.60340
H911        H  0.44749263  0.87975429  0.09160038     0.43690
H912        H  0.04827898  0.83186274  0.19536355     0.43650
C913        C  0.17942830  0.61930928  0.18925901    -0.05410
C914        C  0.15893744  0.63239238  0.16694545    -0.32840
C915        C  0.17739813  0.66621586  0.14257483     0.36410
C916        C  0.21656060  0.68634157  0.13906840    -0.05770
C917        C  0.23690258  0.67447826  0.16325954    -0.32740
C918        C  0.21879784  0.64148834  0.18820058     0.36310
H919        H  0.12871891  0.61529235  0.16594385     0.16680
O920        O  0.15683051  0.67725643  0.11914837    -0.60240
H921        H  0.26712838  0.69002647  0.16132527     0.16700
O922        O  0.23988239  0.63024848  0.21024083    -0.60340
H923        H  0.25049734  0.62153845  0.18733854     0.43690
H924        H  0.15305053  0.69383319  0.13948953     0.43650
C925        C  0.20982190  0.52682849  0.13635247    -0.05410
C926        C  0.21232035  0.52794885  0.18224692    -0.32840
C927        C  0.19406172  0.54225416  0.20712820     0.36410
C928        C  0.17261064  0.55475717  0.18574392    -0.05770
C929        C  0.16772954  0.55021896  0.14026482    -0.32740
C930        C  0.18632630  0.53677902  0.11555669     0.36310
H931        H  0.23041748  0.52033821  0.19850982     0.16680
O932        O  0.19927292  0.54624042  0.25164471    -0.60240
H933        H  0.15147504  0.55986347  0.12337962     0.16700
O934        O  0.18395605  0.53647215  0.07071060    -0.60340
H935        H  0.15692172  0.52069014  0.06331437     0.43690
H936        H  0.22496648  0.56852877  0.25640707     0.43650
C937        C  0.16739623  0.61357176  0.40655788    -0.05410
C938        C  0.15089223  0.62993067  0.43084787    -0.32840
C939        C  0.17317365  0.66491781  0.45314590     0.36410
C940        C  0.21242775  0.68318459  0.45253988    -0.05770
C941        C  0.22877312  0.66887811  0.42487786    -0.32740
C942        C  0.20654399  0.63493361  0.40103684     0.36310
H943        H  0.12104677  0.61379635  0.43633816     0.16680
O944        O  0.15637646  0.67841537  0.47974340    -0.60240
H945        H  0.25892424  0.68307303  0.42340945     0.16700
O946        O  0.22366461  0.62064000  0.37626292    -0.60340
H947        H  0.21920410  0.62472883  0.34547639     0.43690
H948        H  0.15098452  0.69434556  0.46061432     0.43650
C949        C  0.20868508  0.53307169  0.46980202    -0.05410
C950        C  0.18959486  0.54737695  0.49212224    -0.32840
C951        C  0.16633776  0.55624482  0.46962910     0.36410
C952        C  0.16284334  0.55196777  0.42380492    -0.05770
C953        C  0.18103973  0.53638584  0.40147884    -0.32740
C954        C  0.20323653  0.52601966  0.42450044     0.36310
H955        H  0.19325967  0.55237472  0.52715302     0.16680
O956        O  0.14785768  0.57015756  0.49245828    -0.60240
H957        H  0.17974208  0.53428704  0.36610659     0.16700
O958        O  0.22175836  0.01195790  0.40214945    -0.60340
H959        H  0.20402485  0.98386520  0.40059799     0.43690
H960        H  0.16752651  0.59588723  0.50342543     0.43650
C961        C  0.61354612  0.05060831  0.37815963     0.00620
C962        C  0.64681953  0.07121814  0.39952816     0.00620
C963        C  0.63335263  0.06598820  0.23627388     0.00620
C964        C  0.66123382  0.07979876  0.20695364     0.00620
O965        O  0.60907883  0.48978242  0.34807925    -0.74370
O966        O  0.54214789  0.42816782  0.24604923    -0.74410
O967        O  0.61514893  0.49592366  0.25454436    -0.74460
O968        O  0.53567805  0.41650530  0.33691607    -0.74510
O969        O  0.50761267  0.44145596  0.30720827    -0.74440
O970        O  0.60052010  0.52937474  0.29257980    -0.74420
O971        O  0.54427666  0.48158750  0.23883654    -0.74400
O972        O  0.55957920  0.48961952  0.36353132    -0.74460
Ni973      Ni  0.57818030  0.45447575  0.29646919     1.25410
Ni974      Ni  0.55169405  0.48762399  0.30086272     1.25360
C975        C  0.59414118  0.50603623  0.36970669     0.87800
C976        C  0.52788461  0.44666379  0.22876002     0.87740
C977        C  0.61868826  0.52880870  0.26183564     0.87760
C978        C  0.50505578  0.41695681  0.33238217     0.87940
C979        C  0.96637888  0.39498360  0.19513049     0.00620
C980        C  0.98582534  0.42829956  0.21883064     0.00620
C981        C  0.96704347  0.39908729  0.35639391     0.00620
C982        C  0.95484428  0.37195081  0.38742786     0.00620
C983        C  0.97276529  0.06530715  0.22907422     0.00620
C984        C  0.95748356  0.08015490  0.20346428     0.00620
C985        C  0.96634375  0.05980927  0.36440390     0.00620
C986        C  0.95545460  0.08041489  0.38802912     0.00620
O987        O  0.53518822  0.11039809  0.34168040    -0.74370
O988        O  0.61363239  0.11346928  0.26107959    -0.74410
O989        O  0.54022475  0.11539660  0.25584711    -0.74460
O990        O  0.60397980  0.10463602  0.34841779    -0.74510
O991        O  0.56473037  0.04414792  0.33577401    -0.74440
O992        O  0.52085601  0.05644656  0.23841194    -0.74420
O993        O  0.57370582  0.05335536  0.24441880    -0.74400
O994        O  0.51343152  0.05019898  0.33635448    -0.74460
Ni995      Ni  0.57565643  0.11487418  0.30158959     1.25410
Ni996      Ni  0.54184609  0.04964825  0.28859525     1.25360
C997        C  0.50787954  0.07594896  0.34864620     0.87800
C998        C  0.60678588  0.08115972  0.24383250     0.87740
C999        C  0.51513210  0.08312391  0.23728029     0.87760
C1000       C  0.59369190  0.06910545  0.35506177     0.87940
O1001       O  0.95930664  0.00171266  0.37166559    -0.74370
O1002       O  0.98869235  0.47794061  0.26510800    -0.74410
O1003       O  0.96955672  0.02834362  0.28463747    -0.74460
O1004       O  0.97739113  0.45935872  0.35393774    -0.74510
O1005       O  0.91896914  0.41878526  0.33512488    -0.74440
O1006       O  0.92115681  0.49363772  0.24593783    -0.74420
O1007       O  0.93148981  0.43065283  0.25001609    -0.74400
O1008       O  0.91268529  0.49361881  0.33503305    -0.74460
Ni1009     Ni  0.97568379  0.49333183  0.31822608     1.25410
Ni1010     Ni  0.91610779  0.45603721  0.29238850     1.25360
C1011       C  0.94077887  0.51538468  0.36151336     0.87800
C1012       C  0.96694101  0.44661639  0.24407215     0.87740
C1013       C  0.95078188  0.52649705  0.25290037     0.87760
C1014       C  0.95093141  0.42547796  0.35158480     0.87940
C1015       C  0.58716977  0.14440973  0.89809727     0.00620
C1016       C  0.57071206  0.11339902  0.87096830     0.00620
C1017       C  0.58040861  0.46997699  0.87128742     0.00620
C1018       C  0.59053163  0.44932589  0.89544477     0.00620
C1019       C  0.89627131  0.45420384  0.89951966     0.00620
C1020       C  0.92532434  0.47119524  0.87220605     0.00620
C1021       C  0.57657754  0.46942622  0.72359236     0.00620
C1022       C  0.58874509  0.45180516  0.69727759     0.00620
O1023       O  0.63102540  0.03857078  0.74840163    -0.74370
O1024       O  0.62673923  0.10479378  0.84731982    -0.74410
O1025       O  0.63604565  0.03487167  0.84352566    -0.74460
O1026       O  0.62660857  0.10512194  0.75830081    -0.74510
O1027       O  0.57273716  0.05196830  0.74867452    -0.74440
O1028       O  0.58756871  0.03006301  0.86904711    -0.74420
O1029       O  0.56871935  0.06828270  0.82935918    -0.74400
O1030       O  0.58780234  0.99832143  0.78805873    -0.74460
Ni1031     Ni  0.63593930  0.07402397  0.80018254     1.25410
Ni1032     Ni  0.57630532  0.03446601  0.80800572     1.25360
C1033       C  0.60296260  0.00385266  0.75307356     0.87800
C1034       C  0.59210142  0.09690725  0.84910702     0.87740
C1035       C  0.60643166  0.01517871  0.86782134     0.87760
C1036       C  0.59366715  0.08829262  0.74080957     0.87940
C1037       C  0.58795362  0.13874723  0.69561693     0.00620
C1038       C  0.57397134  0.11073093  0.72582736     0.00620
C1039       C  0.92240915  0.46999718  0.72513703     0.00620
C1040       C  0.88953189  0.44901937  0.70340219     0.00620
O1041       O  0.93920521  0.03886067  0.84752211    -0.74370
O1042       O  0.00994795  0.10396501  0.74896364    -0.74410
O1043       O  0.93157506  0.03414280  0.75254025    -0.74460
O1044       O  0.01176705  0.10715637  0.83909579    -0.74510
O1045       O  0.51005632  0.05436521  0.85242638    -0.74440
O1046       O  0.97707650  0.03062144  0.73018288    -0.74420
O1047       O  0.53457838  0.07414214  0.77538827    -0.74400
O1048       O  0.94345435  0.99893133  0.80848295    -0.74460
Ni1049     Ni  0.97040076  0.07426578  0.79656850     1.25410
Ni1050     Ni  0.99177908  0.03682099  0.79203122     1.25360
C1051       C  0.93285923  0.00441630  0.84276210     0.87800
C1052       C  0.53788057  0.09827448  0.75024664     0.87740
C1053       C  0.94261439  0.01503893  0.72940698     0.87760
C1054       C  0.52741513  0.09103651  0.85811208     0.87940
O1055       O  0.53110949  0.48069072  0.74733294    -0.74370
O1056       O  0.98294600  0.48267740  0.84955304    -0.74410
O1057       O  0.53824786  0.47993021  0.83599141    -0.74460
O1058       O  0.97469644  0.48034074  0.76120693    -0.74510
O1059       O  0.93787886  0.41935095  0.75457536    -0.74440
O1060       O  0.01228195  0.41915168  0.84148488    -0.74420
O1061       O  0.94105947  0.42148607  0.84399136    -0.74400
O1062       O  0.01039049  0.41976315  0.75241097    -0.74460
Ni1063     Ni  0.00733857  0.48192235  0.79857181     1.25410
Ni1064     Ni  0.97334375  0.41606830  0.79813438     1.25360
C1065       C  0.53535128  0.45342678  0.73787417     0.87800
C1066       C  0.95073190  0.45548519  0.85871209     0.87740
C1067       C  0.54074974  0.45329328  0.84981806     0.87760
C1068       C  0.94487323  0.45353530  0.74648453     0.87940
O1069       O  0.82724905  0.28088345  0.08589387    -0.74370
O1070       O  0.75172344  0.22325652  0.99788402    -0.74410
O1071       O  0.81920434  0.29051268  0.00000675    -0.74460
O1072       O  0.76108961  0.21408662  0.08347219    -0.74510
O1073       O  0.73116805  0.24371548  0.10155572    -0.74440
O1074       O  0.79175762  0.32238328  0.01956430    -0.74420
O1075       O  0.72441771  0.25558302  0.01554631    -0.74400
O1076       O  0.79846383  0.31143169  0.10498245    -0.74460
Ni1077     Ni  0.79076810  0.25106387  0.04107887     1.25410
Ni1078     Ni  0.76031061  0.28430911  0.06100641     1.25360
C1079       C  0.82544359  0.30578079  0.10966086     0.87800
C1080       C  0.72545865  0.22998323  0.99243836     0.87740
C1081       C  0.81584680  0.31955988  0.99710285     0.87760
C1082       C  0.73690781  0.21622417  0.10637224     0.87940
O1083       O  0.98272202  0.21378192  0.08449999    -0.74370
O1084       O  0.50086715  0.28364050  0.99172026    -0.74410
O1085       O  0.49925081  0.21674993  0.99864801    -0.74460
O1086       O  0.98454978  0.28075842  0.07680199    -0.74510
O1087       O  0.54514449  0.31287501  0.09523036    -0.74440
O1088       O  0.55988891  0.24916385  0.01695854    -0.74420
O1089       O  0.56160143  0.31575464  0.00918486    -0.74400
O1090       O  0.54347909  0.24570715  0.10182300    -0.74460
Ni1091     Ni  0.98965112  0.24751364  0.03738537     1.25410
Ni1092     Ni  0.55469642  0.28212825  0.05643895     1.25360
C1093       C  0.51008533  0.21754347  0.10752254     0.87800
C1094       C  0.53432727  0.31143777  0.98548363     0.87740
C1095       C  0.53202040  0.22217676  0.99574915     0.87760
C1096       C  0.51250465  0.30779998  0.09791259     0.87940
O1097       O  0.79439363  0.98697886  0.10290306    -0.74370
O1098       O  0.71948510  0.46971689  0.01924290    -0.74410
O1099       O  0.78411351  0.47036035  0.01621939    -0.74460
O1100       O  0.72959285  0.98682524  0.10514526    -0.74510
O1101       O  0.75977911  0.04854004  0.08712422    -0.74440
O1102       O  0.81673270  0.03288794  0.00201234    -0.74420
O1103       O  0.75149517  0.03145785  0.00107873    -0.74400
O1104       O  0.82496933  0.04938939  0.08788930    -0.74460
Ni1105     Ni  0.75582647  0.47621263  0.06145165     1.25410
Ni1106     Ni  0.78939076  0.04282418  0.04410600     1.25360
C1107       C  0.82236043  0.02102542  0.10836762     0.87800
C1108       C  0.72274358  0.49760496  0.99716428     0.87740
C1109       C  0.80969414  0.49897831  0.99509222     0.87760
C1110       C  0.73479635  0.02037232  0.10917032     0.87940
O1111       O  0.75240126  0.03374528  0.60281490    -0.74370
O1112       O  0.82485310  0.05595620  0.51401869    -0.74410
O1113       O  0.75944785  0.05403522  0.51882675    -0.74460
O1114       O  0.81755440  0.03504140  0.59923213    -0.74510
O1115       O  0.78540055  0.47346084  0.57848375    -0.74440
O1116       O  0.72951173  0.99310999  0.49569786    -0.74420
O1117       O  0.79475751  0.99433068  0.49402540    -0.74400
O1118       O  0.72025628  0.47268175  0.58019397    -0.74460
Ni1119     Ni  0.78981965  0.04691043  0.55943539     1.25410
Ni1120     Ni  0.75640517  0.48116856  0.53642934     1.25360
C1121       C  0.72360650  0.49986983  0.60465618     0.87800
C1122       C  0.82210526  0.02889537  0.48983031     0.87740
C1123       C  0.73432392  0.02652506  0.49512258     0.87760
C1124       C  0.81101210  0.50097150  0.60167400     0.87940
O1125       O  0.54957687  0.24384839  0.49645436    -0.74370
O1126       O  0.56194008  0.31730876  0.58322120    -0.74410
O1127       O  0.56627869  0.25388317  0.58325750    -0.74460
O1128       O  0.54466402  0.30721242  0.49668886    -0.74510
O1129       O  0.98404389  0.27009207  0.51169771    -0.74440
O1130       O  0.50589445  0.21889725  0.60018327    -0.74420
O1131       O  0.50108120  0.28281701  0.59825767    -0.74400
O1132       O  0.98939321  0.20743091  0.51421313    -0.74460
Ni1133     Ni  0.55778798  0.28188758  0.53937109     1.25410
Ni1134     Ni  0.99294491  0.24361836  0.55670794     1.25360
C1135       C  0.51750308  0.21318399  0.49185501     0.87800
C1136       C  0.53372988  0.31247581  0.60456144     0.87740
C1137       C  0.53961778  0.22729664  0.60554170     0.87760
C1138       C  0.51052535  0.29688324  0.48958870     0.87940
O1139       O  0.71862801  0.24616440  0.57552869    -0.74370
O1140       O  0.79794662  0.30910582  0.49693952    -0.74410
O1141       O  0.73107709  0.24155480  0.49046101    -0.74460
O1142       O  0.78457904  0.31385247  0.58302565    -0.74510
O1143       O  0.81372313  0.28337690  0.60070672    -0.74440
O1144       O  0.75973251  0.21055218  0.50798377    -0.74420
O1145       O  0.82613404  0.27784725  0.51562558    -0.74400
O1146       O  0.74756153  0.21556242  0.59391792    -0.74460
Ni1147     Ni  0.75714275  0.27891468  0.53586715     1.25410
Ni1148     Ni  0.78778741  0.24570781  0.55513244     1.25360
C1149       C  0.71991964  0.22019385  0.59692435     0.87800
C1150       C  0.82529837  0.30383420  0.49392229     0.87740
C1151       C  0.73593328  0.21360206  0.48472717     0.87760
C1152       C  0.80791207  0.31070081  0.60693362     0.87940
C1153       C  0.87142647  0.40758910  0.69193326    -0.05410
C1154       C  0.83234324  0.38489338  0.69566030    -0.32840
C1155       C  0.81125843  0.35211734  0.66948072     0.36410
C1156       C  0.82929688  0.34014807  0.64090200    -0.05770
C1157       C  0.86845414  0.36022915  0.64066549    -0.32740
C1158       C  0.88959927  0.39429637  0.66509928     0.36310
H1159       H  0.81781292  0.39491260  0.71546808     0.16680
O1160       O  0.77297027  0.33290317  0.67060303    -0.60240
H1161       H  0.88262406  0.35157674  0.61829639     0.16700
O1162       O  0.92721684  0.41692312  0.65767403    -0.60340
H1163       H  0.93820260  0.40253081  0.66946856     0.43690
H1164       H  0.76595688  0.34785131  0.65194334     0.43650
C1165       C  0.87389675  0.46876072  0.67965400    -0.05410
C1166       C  0.87729781  0.47056958  0.63417894    -0.32840
C1167       C  0.85735963  0.48195698  0.60902951     0.36410
C1168       C  0.83473464  0.49319517  0.62917967    -0.05770
C1169       C  0.83269183  0.49347151  0.67493139    -0.32740
C1170       C  0.85197761  0.48085335  0.70039749     0.36310
H1171       H  0.89390871  0.46105953  0.61795577     0.16680
O1172       O  0.85914035  0.48081573  0.56446599    -0.60240
H1173       H  0.81470206  0.00145017  0.69065135     0.16700
O1174       O  0.84700371  0.47746838  0.74481591    -0.60340
H1175       H  0.85779265  0.00390801  0.75631936     0.43690
H1176       H  0.84065974  0.45383005  0.55610940     0.43650
C1177       C  0.68808732  0.19410519  0.62372590    -0.05410
C1178       C  0.65445101  0.16788122  0.60264945    -0.32840
C1179       C  0.62200817  0.14606842  0.62672470     0.36410
C1180       C  0.62308587  0.15050498  0.67252107    -0.05770
C1181       C  0.65742665  0.17489759  0.69386269    -0.32740
C1182       C  0.69003023  0.19649513  0.66961947     0.36310
H1183       H  0.65301522  0.16545409  0.56729027     0.16680
O1184       O  0.58888854  0.12193047  0.60517689    -0.60240
H1185       H  0.65839124  0.17946216  0.72892140     0.16700
O1186       O  0.72281655  0.22223084  0.69070181    -0.60340
H1187       H  0.73547623  0.20800166  0.69631213     0.43690
H1188       H  0.58227493  0.13884032  0.58993189     0.43650
C1189       C  0.56971933  0.16024319  0.68260732    -0.05410
C1190       C  0.59144601  0.20047197  0.68463172    -0.32840
C1191       C  0.58100876  0.22268706  0.66145769     0.36650
C1192       C  0.54785403  0.20491673  0.63630840    -0.05770
C1193       C  0.52432356  0.16483279  0.63730437    -0.32740
C1194       C  0.53539705  0.14241468  0.65939546     0.36310
H1195       H  0.61799902  0.21477209  0.70203553     0.16680
O1196       O  0.60429492  0.26175336  0.66205893    -0.60240
H1197       H  0.49865571  0.15065916  0.61814222     0.16700
O1198       O  0.51379335  0.10324933  0.65569052    -0.60340
H1199       H  0.51682910  0.09701573  0.62519474     0.43690
H1200       H  0.59589538  0.27076137  0.68708300     0.43650
C1201       C  0.62672850  0.47289272  0.67829806    -0.05410
C1202       C  0.65713419  0.47430704  0.69966044    -0.32840
C1203       C  0.68980320  0.48433329  0.67653943     0.36410
C1204       C  0.69197104  0.49288959  0.63179608    -0.05770
C1205       C  0.66240010  0.49336004  0.61132217    -0.32740
C1206       C  0.63016424  0.48385093  0.63428419     0.36310
H1207       H  0.65466503  0.46550247  0.73339106     0.16680
O1208       O  0.71870907  0.48424386  0.69734984    -0.60240
H1209       H  0.66376975  0.99980036  0.57687063     0.16700
O1210       O  0.60092708  0.48254548  0.61248053    -0.60340
H1211       H  0.60293926  0.00711240  0.61981438     0.43690
H1212       H  0.71356743  0.45792660  0.69308606     0.43650
C1213       C  0.56534116  0.41108757  0.68327513    -0.05410
C1214       C  0.57908655  0.38735149  0.69307628    -0.32840
C1215       C  0.56718112  0.35370646  0.66919373     0.36410
C1216       C  0.53976351  0.34229032  0.63633226    -0.05770
C1217       C  0.52301414  0.36375224  0.62953049    -0.32740
C1218       C  0.53596722  0.39836587  0.65253520     0.36310
H1219       H  0.60155075  0.39660264  0.71680692     0.16680
O1220       O  0.58374945  0.33304213  0.67672708    -0.60240
H1221       H  0.50221099  0.35542853  0.60380423     0.16700
O1222       O  0.52270039  0.42135855  0.64138961    -0.60340
H1223       H  0.99812882  0.40990727  0.65579329     0.43690
H1224       H  0.60756557  0.34639549  0.66047619     0.43650
C1225       C  0.88403048  0.41690182  0.91923039    -0.05410
C1226       C  0.89380290  0.41649926  0.96290901    -0.32840
C1227       C  0.87252807  0.38390852  0.98805024     0.36410
C1228       C  0.84141005  0.35129623  0.96923886    -0.05770
C1229       C  0.83359356  0.35044449  0.92452506    -0.32740
C1230       C  0.85494910  0.38311535  0.89932660     0.36310
H1231       H  0.91602219  0.44243497  0.97847955     0.16680
O1232       O  0.88121731  0.38462979  0.03147994    -0.60240
H1233       H  0.80976890  0.32524082  0.90979934     0.16700
O1234       O  0.84480206  0.38304148  0.85659623    -0.60340
H1235       H  0.86108132  0.37729626  0.83911946     0.43690
H1236       H  0.87711706  0.40407836  0.04514719     0.43650
C1237       C  0.83237394  0.49288266  0.96354635    -0.05410
C1238       C  0.87146126  0.51433117  0.96778195    -0.32840
C1239       C  0.89328657  0.50412578  0.94381174     0.36410
C1240       C  0.87599672  0.47283474  0.91429384    -0.05770
C1241       C  0.83720073  0.45380079  0.90725374    -0.32740
C1242       C  0.81539598  0.46356586  0.93173981     0.36310
H1243       H  0.88486067  0.53718330  0.99201927     0.16680
O1244       O  0.93106307  0.52295971  0.95180378    -0.60240
H1245       H  0.82345808  0.42979155  0.88458546     0.16700
O1246       O  0.77735739  0.44320797  0.92571638    -0.60340
H1247       H  0.77232235  0.45861567  0.90523892     0.43690
H1248       H  0.93391144  0.51170295  0.97900530     0.43650
C1249       C  0.56658744  0.40721988  0.90304168    -0.05410
C1250       C  0.58430094  0.38628375  0.89941011    -0.32840
C1251       C  0.57269596  0.35357024  0.92424806     0.36410
C1252       C  0.54173674  0.34003882  0.95174557    -0.05770
C1253       C  0.52070445  0.35756050  0.95074666    -0.32740
C1254       C  0.53331326  0.39149044  0.92737318     0.36310
H1255       H  0.61000682  0.39794651  0.88122578     0.16680
O1256       O  0.59354424  0.33678426  0.92398050    -0.60240
H1257       H  0.49667352  0.34728987  0.97169991     0.16700
O1258       O  0.51542220  0.41114882  0.93266532    -0.60340
H1259       H  0.52209688  0.42245291  0.96256640     0.43690
H1260       H  0.58047969  0.31493724  0.90306914     0.43650
C1261       C  0.69089583  0.49053274  0.97025776    -0.05410
C1262       C  0.65641236  0.47422535  0.99083934    -0.32840
C1263       C  0.62425176  0.46434888  0.96714889     0.36410
C1264       C  0.62589241  0.46881952  0.92143620    -0.05770
C1265       C  0.66073686  0.48612227  0.90071082    -0.32740
C1266       C  0.69345846  0.99789313  0.92519944     0.36310
H1267       H  0.65426880  0.46848533  0.02557087     0.16680
O1268       O  0.59111584  0.44977026  0.98886073    -0.60240
H1269       H  0.66232020  0.48892530  0.86548039     0.16700
O1270       O  0.72710015  0.01361791  0.90446112    -0.60340
H1271       H  0.73734117  0.04156908  0.90469121     0.43690
H1272       H  0.58532829  0.42474075  0.00040519     0.43650
C1273       C  0.69504999  0.20762341  0.96003663    -0.05410
C1274       C  0.68159071  0.22645252  0.93511671    -0.32840
C1275       C  0.64864257  0.20575352  0.91032867     0.36410
C1276       C  0.62762237  0.16536816  0.91119962    -0.05770
C1277       C  0.64238750  0.14648521  0.93389537    -0.32740
C1278       C  0.67622136  0.16735779  0.95753301     0.36310
H1279       H  0.69593158  0.25741765  0.93625849     0.16680
O1280       O  0.63560233  0.22537657  0.88815405    -0.60240
H1281       H  0.62630101  0.11556642  0.93611521     0.16700
O1282       O  0.68840746  0.14802059  0.98181895    -0.60340
H1283       H  0.70398706  0.14332224  0.96164574     0.43690
H1284       H  0.64167898  0.22440704  0.85706947     0.43650
C1285       C  0.56449490  0.15672059  0.92166099    -0.05410
C1286       C  0.55048436  0.17662791  0.89980421    -0.32840
C1287       C  0.53677479  0.19589067  0.92361657     0.36410
C1288       C  0.53819126  0.19615136  0.96953668    -0.05770
C1289       C  0.55026863  0.17464980  0.99116211    -0.32740
C1290       C  0.56287192  0.15457507  0.96759304     0.36310
H1291       H  0.55250613  0.17936344  0.86457880     0.16680
O1292       O  0.52538026  0.21717514  0.90197635    -0.60240
H1293       H  0.55129553  0.17466722  0.02655098     0.16700
O1294       O  0.57620434  0.13526876  0.98989206    -0.60340
H1295       H  0.55553972  0.10805498  0.98893533     0.43690
H1296       H  0.99804715  0.19973801  0.89764059     0.43650
C1297       C  0.98368762  0.11703643  0.40916428    -0.05410
C1298       C  0.49091856  0.11557124  0.45370312    -0.32840
C1299       C  0.50504904  0.14802487  0.48030060     0.36410
C1300       C  0.01259604  0.18263984  0.46229928    -0.05770
C1301       C  0.00992865  0.18549022  0.41685660    -0.32740
C1302       C  0.99538484  0.15257979  0.38998985     0.36310
H1303       H  0.48215282  0.08831602  0.46867949     0.16680
O1304       O  0.50816518  0.14485922  0.52454298    -0.60240
H1305       H  0.01632497  0.21236771  0.40276873     0.16700
O1306       O  0.99049588  0.15469945  0.34586190    -0.60340
H1307       H  0.97357554  0.16456738  0.34284958     0.43690
H1308       H  0.53479689  0.15364388  0.52982246     0.43650
C1309       C  0.91692921  0.06294108  0.40716914    -0.05410
C1310       C  0.90118394  0.02903887  0.43151423    -0.32840
C1311       C  0.86778086  0.01531222  0.45453226     0.36410
C1312       C  0.85187420  0.03793940  0.45788456    -0.05770
C1313       C  0.86707775  0.07157490  0.43357414    -0.32740
C1314       C  0.89863618  0.08356800  0.40754758     0.36310
H1315       H  0.91549358  0.01375095  0.43480976     0.16680
O1316       O  0.85095625  0.48017963  0.47428744    -0.60240
H1317       H  0.85461883  0.08888480  0.43506848     0.16700
O1318       O  0.91174245  0.11588730  0.38305103    -0.60340
H1319       H  0.92123308  0.13740627  0.40445272     0.43690
H1320       H  0.87095996  0.47583175  0.48396568     0.43650
C1321       C  0.92055069  0.05493789  0.18257245    -0.05410
C1322       C  0.88743317  0.04426169  0.20483342    -0.32840
C1323       C  0.85397098  0.03067356  0.18124017     0.36410
C1324       C  0.85393830  0.02767885  0.13539779    -0.05770
C1325       C  0.88622364  0.03507727  0.11387961    -0.32740
C1326       C  0.91933143  0.04827271  0.13719283     0.36310
H1327       H  0.88816981  0.04924373  0.23978069     0.16680
O1328       O  0.82217681  0.02258999  0.20277109    -0.60240
H1329       H  0.88616837  0.03237342  0.07856551     0.16700
O1330       O  0.95119322  0.05776311  0.11483042    -0.60340
H1331       H  0.95443333  0.03572064  0.11859785     0.43690
H1332       H  0.82277296  0.04704551  0.20371741     0.43650
C1333       C  0.97782692  0.12065604  0.18848516    -0.05410
C1334       C  0.51018245  0.13555413  0.16309770    -0.32840
C1335       C  0.52310196  0.16938786  0.13948924     0.36410
C1336       C  0.00270715  0.18779662  0.13968701    -0.05770
C1337       C  0.97193673  0.17430978  0.16717362    -0.32740
C1338       C  0.96003755  0.14165521  0.19217413     0.36310
H1339       H  0.52390859  0.11965816  0.15897997     0.16680
O1340       O  0.55340219  0.18196648  0.11292705    -0.60240
H1341       H  0.95628312  0.18845079  0.16815179     0.16700
O1342       O  0.92918299  0.12892518  0.21785682    -0.60340
H1343       H  0.93911507  0.13646446  0.24816162     0.43690
H1344       H  0.57540878  0.19867113  0.13189997     0.43650
C1345       C  0.92083786  0.36126135  0.41297578    -0.05410
C1346       C  0.92447767  0.36690091  0.45849149    -0.32840
C1347       C  0.89303144  0.35001131  0.48497145     0.36410
C1348       C  0.85721354  0.32807269  0.46597985    -0.05770
C1349       C  0.85320980  0.32442320  0.42033981    -0.32740
C1350       C  0.88490377  0.34071299  0.39367853     0.36310
H1351       H  0.95194013  0.38266016  0.47376328     0.16680
O1352       O  0.89754374  0.35394927  0.52957864    -0.60240
H1353       H  0.82571271  0.30669938  0.40558614     0.16700
O1354       O  0.88075957  0.33313821  0.34950176    -0.60340
H1355       H  0.86677842  0.34465955  0.33817460     0.43690
H1356       H  0.90305817  0.33428120  0.53866278     0.43650
C1357       C  0.97610870  0.35434759  0.40242984    -0.05410
C1358       C  0.95724588  0.31424061  0.40227039    -0.32840
C1359       C  0.96909275  0.29522146  0.42926776     0.36410
C1360       C  0.00109386  0.31629420  0.45606013    -0.05770
C1361       C  0.52177032  0.35639815  0.45374896    -0.32740
C1362       C  0.50916007  0.37556857  0.42776593     0.36310
H1363       H  0.93137043  0.29755504  0.38380438     0.16680
O1364       O  0.94860062  0.25596041  0.43015144    -0.60240
H1365       H  0.54604044  0.37298730  0.47480690     0.16700
O1366       O  0.52635222  0.41462062  0.43174168    -0.60340
H1367       H  0.55242716  0.42528251  0.42205460     0.43690
H1368       H  0.92698755  0.24923211  0.44911638     0.43650
C1369       C  0.85588440  0.32894617  0.14169291    -0.05410
C1370       C  0.87063528  0.31123302  0.16621463    -0.32840
C1371       C  0.90436910  0.33306810  0.18942799     0.36410
C1372       C  0.92502967  0.37343566  0.18654849    -0.05770
C1373       C  0.90843457  0.39114501  0.16523415    -0.32740
C1374       C  0.87338630  0.36909551  0.14438131     0.36310
H1375       H  0.85669852  0.28029308  0.16600803     0.16680
O1376       O  0.91796106  0.31471139  0.21326839    -0.60240
H1377       H  0.92371471  0.42198371  0.16210189     0.16700
O1378       O  0.85823310  0.38722902  0.12340107    -0.60340
H1379       H  0.84322430  0.39055290  0.14585624     0.43690
H1380       H  0.92265823  0.29949987  0.19179692     0.43650
C1381       C  0.98618719  0.37938603  0.17090321    -0.05410
C1382       C  0.49920204  0.35859840  0.19290063    -0.32840
C1383       C  0.51013290  0.33671529  0.16939548     0.36410
C1384       C  0.00690539  0.33458519  0.12357048    -0.05770
C1385       C  0.99536763  0.35641416  0.10155959    -0.32740
C1386       C  0.98519626  0.37884914  0.12485711     0.36310
H1387       H  0.49847852  0.35725233  0.22826791     0.16680
O1388       O  0.52081865  0.31503918  0.19149904    -0.60240
H1389       H  0.99316730  0.35514523  0.06615627     0.16700
O1390       O  0.97292949  0.39910807  0.10249279    -0.60340
H1391       H  0.94749160  0.37975648  0.09160388     0.43690
H1392       H  0.54827224  0.33186384  0.19537811     0.43650
C1393       C  0.67943431  0.11930713  0.18924550    -0.05410
C1394       C  0.65894177  0.13238955  0.16693432    -0.32840
C1395       C  0.67740054  0.16621223  0.14256183     0.36410
C1396       C  0.71656270  0.18633774  0.13905072    -0.05770
C1397       C  0.73690645  0.17447490  0.16323902    -0.32740
C1398       C  0.71880380  0.14148607  0.18818215     0.36310
H1399       H  0.62872320  0.11528972  0.16593628     0.16680
O1400       O  0.65683107  0.17725252  0.11913884    -0.60240
H1401       H  0.76713209  0.19002314  0.16130180     0.16700
O1402       O  0.73989035  0.13024744  0.21022009    -0.60340
H1403       H  0.75050457  0.12153767  0.18731656     0.43690
H1404       H  0.65305255  0.19382939  0.13948153     0.43650
C1405       C  0.70983595  0.02683321  0.13634274    -0.05410
C1406       C  0.71233364  0.02795318  0.18223718    -0.32840
C1407       C  0.69407239  0.04225576  0.20711795     0.36410
C1408       C  0.67261946  0.05475629  0.18573309    -0.05770
C1409       C  0.66773900  0.05021793  0.14025391    -0.32740
C1410       C  0.68633840  0.03678079  0.11554630     0.36310
H1411       H  0.73043182  0.02034414  0.19850049     0.16680
O1412       O  0.69928297  0.04624212  0.25163452    -0.60240
H1413       H  0.65148304  0.05986048  0.12336828     0.16700
O1414       O  0.68396824  0.03647329  0.07070015    -0.60340
H1415       H  0.65693411  0.02068855  0.06330378     0.43690
H1416       H  0.72497492  0.06853324  0.25639725     0.43650
C1417       C  0.66740660  0.11356555  0.40655657    -0.05410
C1418       C  0.65089773  0.12992126  0.43084307    -0.32840
C1419       C  0.67317460  0.16490806  0.45314298     0.36410
C1420       C  0.71242890  0.18317723  0.45254336    -0.05770
C1421       C  0.72877955  0.16887357  0.42488579    -0.32740
C1422       C  0.70655508  0.13492953  0.40104246     0.36310
H1423       H  0.62105162  0.11378500  0.43632877     0.16680
O1424       O  0.65637249  0.17840305  0.47973597    -0.60240
H1425       H  0.75893107  0.18307031  0.42342280     0.16700
O1426       O  0.72368059  0.12063873  0.37627296    -0.60340
H1427       H  0.71922491  0.12472970  0.34548537     0.43690
H1428       H  0.65098154  0.19433274  0.46060469     0.43650
C1429       C  0.70869426  0.03306416  0.46979846    -0.05410
C1430       C  0.68959997  0.04736528  0.49211771    -0.32840
C1431       C  0.66634384  0.05623346  0.46962295     0.36410
C1432       C  0.66285417  0.05196069  0.42379825    -0.05770
C1433       C  0.68105341  0.03638137  0.40147303    -0.32740
C1434       C  0.70324981  0.02601531  0.42449611     0.36310
H1435       H  0.69326147  0.05236039  0.52714905     0.16680
O1436       O  0.64786052  0.07014302  0.49245116    -0.60240
H1437       H  0.67975845  0.03428486  0.36610061     0.16700
O1438       O  0.72174134  0.51195854  0.40215275    -0.60340
H1439       H  0.70400552  0.48386624  0.40060208     0.43690
H1440       H  0.66752756  0.09587270  0.50342034     0.43650
C1441       C  0.61353283  0.55061219  0.37816797     0.00620
C1442       C  0.64680708  0.57122348  0.39953477     0.00620
C1443       C  0.63334454  0.56599049  0.23628431     0.00620
C1444       C  0.66122638  0.57980050  0.20696528     0.00620
O1445       O  0.60909163  0.98977960  0.34806794    -0.74370
O1446       O  0.54215629  0.92816533  0.24604087    -0.74410
O1447       O  0.61515784  0.99592116  0.25453288    -0.74460
O1448       O  0.53569082  0.91650330  0.33690947    -0.74510
O1449       O  0.50762365  0.94145195  0.30720167    -0.74440
O1450       O  0.60053044  0.02937219  0.29257079    -0.74420
O1451       O  0.54428577  0.98158544  0.23882950    -0.74400
O1452       O  0.55959221  0.98961636  0.36352331    -0.74460
Ni1453     Ni  0.57819099  0.95447311  0.29645923     1.25410
Ni1454     Ni  0.55170477  0.98762105  0.30085533     1.25360
C1455       C  0.59415436  0.00603288  0.36969708     0.87800
C1456       C  0.52789292  0.94666182  0.22875302     0.87740
C1457       C  0.61869746  0.02880629  0.26182513     0.87760
C1458       C  0.50506834  0.91695470  0.33237777     0.87940
C1459       C  0.96638539  0.89498269  0.19512703     0.00620
C1460       C  0.98583339  0.92829871  0.21882689     0.00620
C1461       C  0.96705823  0.89908868  0.35639387     0.00620
C1462       C  0.95485668  0.87195250  0.38742858     0.00620
C1463       C  0.97275579  0.56530639  0.22907347     0.00620
C1464       C  0.95747298  0.58015615  0.20346937     0.00620
C1465       C  0.96632760  0.55980804  0.36439615     0.00620
C1466       C  0.95543725  0.58041402  0.38801774     0.00620
O1467       O  0.53517302  0.61039747  0.34167867    -0.74370
O1468       O  0.61362269  0.61347128  0.26108610    -0.74410
O1469       O  0.54021429  0.61539669  0.25584671    -0.74460
O1470       O  0.60396603  0.60463864  0.34842364    -0.74510
O1471       O  0.56471820  0.54415037  0.33577920    -0.74440
O1472       O  0.52084703  0.55644677  0.23841260    -0.74420
O1473       O  0.57369735  0.55335743  0.24442398    -0.74400
O1474       O  0.51341801  0.55019837  0.33635499    -0.74460
Ni1475     Ni  0.57564410  0.61487522  0.30159220     1.25410
Ni1476     Ni  0.54183534  0.54964918  0.28859805     1.25360
C1477       C  0.50786449  0.57594802  0.34864352     0.87800
C1478       C  0.60677735  0.58116193  0.24383970     0.87740
C1479       C  0.51512242  0.58312361  0.23728008     0.87760
C1480       C  0.59367866  0.56910838  0.35506823     0.87940
O1481       O  0.95929029  0.50171188  0.37166358    -0.74370
O1482       O  0.98870373  0.97794192  0.26510485    -0.74410
O1483       O  0.96954608  0.52834115  0.28463473    -0.74460
O1484       O  0.97740888  0.95936141  0.35393319    -0.74510
O1485       O  0.91898445  0.91878835  0.33512876    -0.74440
O1486       O  0.92116739  0.99363841  0.24594155    -0.74420
O1487       O  0.93150022  0.93065344  0.25001827    -0.74400
O1488       O  0.91270041  0.99362108  0.33503940    -0.74460
Ni1489     Ni  0.97569782  0.99333386  0.31822503     1.25410
Ni1490     Ni  0.91612070  0.95603896  0.29239276     1.25360
C1491       C  0.94079475  0.01538591  0.36151932     0.87800
C1492       C  0.96695101  0.94661685  0.24407076     0.87740
C1493       C  0.95079193  0.02649841  0.25290299     0.87760
C1494       C  0.95094803  0.92548092  0.35158416     0.87940
C1495       C  0.58716718  0.64439993  0.89810306     0.00620
C1496       C  0.57071921  0.61339781  0.87096158     0.00620
C1497       C  0.58041567  0.96996864  0.87127085     0.00620
C1498       C  0.59053945  0.94931917  0.89543042     0.00620
C1499       C  0.89626419  0.95418497  0.89951107     0.00620
C1500       C  0.92532057  0.97117953  0.87220298     0.00620
C1501       C  0.57657486  0.96942652  0.72358002     0.00620
C1502       C  0.58874663  0.95180294  0.69727526     0.00620
O1503       O  0.63103593  0.53856680  0.74841646    -0.74370
O1504       O  0.62675263  0.60479629  0.84733024    -0.74410
O1505       O  0.63604650  0.53487189  0.84354335    -0.74460
O1506       O  0.62663155  0.60512927  0.75830877    -0.74510
O1507       O  0.57276768  0.55197373  0.74866013    -0.74440
O1508       O  0.58756804  0.53007401  0.86904648    -0.74420
O1509       O  0.56874172  0.56830687  0.82932732    -0.74400
O1510       O  0.58780706  0.49832104  0.78807040    -0.74460
Ni1511     Ni  0.63595273  0.57402557  0.80019456     1.25410
Ni1512     Ni  0.57631830  0.53447581  0.80799830     1.25360
C1513       C  0.60296915  0.50384965  0.75308723     0.87800
C1514       C  0.59211729  0.59691824  0.84909784     0.87740
C1515       C  0.60642794  0.51518541  0.86783346     0.87760
C1516       C  0.59369359  0.58829999  0.74080760     0.87940
C1517       C  0.58797932  0.63875727  0.69562666     0.00620
C1518       C  0.57399385  0.61073480  0.72582909     0.00620
C1519       C  0.92242011  0.97000124  0.72513700     0.00620
C1520       C  0.88954282  0.94902570  0.70340252     0.00620
O1521       O  0.93921682  0.53887529  0.84751443    -0.74370
O1522       O  0.00996681  0.60396622  0.74895640    -0.74410
O1523       O  0.93157632  0.53414838  0.75253107    -0.74460
O1524       O  0.01177969  0.60715713  0.83907773    -0.74510
O1525       O  0.51006759  0.55436273  0.85239800    -0.74440
O1526       O  0.97706467  0.53061306  0.73016197    -0.74420
O1527       O  0.53456988  0.57410204  0.77534439    -0.74400
O1528       O  0.94344206  0.49893161  0.80847485    -0.74460
Ni1529     Ni  0.97041240  0.57427111  0.79655545     1.25410
Ni1530     Ni  0.99177095  0.53680757  0.79200806     1.25360
C1531       C  0.93285912  0.50442655  0.84275774     0.87800
C1532       C  0.53789002  0.59825988  0.75023006     0.87740
C1533       C  0.94260486  0.51503582  0.72939557     0.87760
C1534       C  0.52742559  0.59103423  0.85808941     0.87940
O1535       O  0.53110546  0.98068479  0.74732883    -0.74370
O1536       O  0.98294748  0.98266683  0.84955796    -0.74410
O1537       O  0.53824837  0.97991933  0.83599035    -0.74460
O1538       O  0.97470115  0.98033981  0.76121165    -0.74510
O1539       O  0.93788407  0.91935026  0.75456901    -0.74440
O1540       O  0.01228650  0.91914111  0.84147140    -0.74420
O1541       O  0.94106126  0.92147532  0.84398536    -0.74400
O1542       O  0.01039102  0.91975826  0.75239970    -0.74460
Ni1543     Ni  0.00733975  0.98191530  0.79857355     1.25410
Ni1544     Ni  0.97334632  0.91606134  0.79812556     1.25360
C1545       C  0.53534904  0.95342303  0.73786459     0.87800
C1546       C  0.95073182  0.95547273  0.85871104     0.87740
C1547       C  0.54075397  0.95328258  0.84980729     0.87760
C1548       C  0.94488011  0.95353608  0.74648345     0.87940
O1549       O  0.82724862  0.78087949  0.08590200    -0.74370
O1550       O  0.75171677  0.72324756  0.99790044    -0.74410
O1551       O  0.81919957  0.79050130  0.00001383    -0.74460
O1552       O  0.76108707  0.71408491  0.08348922    -0.74510
O1553       O  0.73116976  0.74371880  0.10157018    -0.74440
O1554       O  0.79175651  0.82237640  0.01956771    -0.74420
O1555       O  0.72441492  0.75557845  0.01556002    -0.74400
O1556       O  0.79846784  0.81143296  0.10498745    -0.74460
Ni1557     Ni  0.79076440  0.75105723  0.04109120     1.25410
Ni1558     Ni  0.76031130  0.78430766  0.06101556     1.25360
C1559       C  0.82544633  0.80578012  0.10966620     0.87800
C1560       C  0.72545296  0.72997570  0.99245479     0.87740
C1561       C  0.81584308  0.81954889  0.99710583     0.87760
C1562       C  0.73690726  0.71622620  0.10638896     0.87940
O1563       O  0.98271650  0.71377919  0.08449408    -0.74370
O1564       O  0.50086751  0.78363433  0.99170813    -0.74410
O1565       O  0.49924319  0.71673987  0.99864255    -0.74460
O1566       O  0.98455103  0.78075848  0.07678985    -0.74510
O1567       O  0.54514579  0.81287114  0.09521762    -0.74440
O1568       O  0.55988154  0.74914972  0.01695173    -0.74420
O1569       O  0.56160181  0.81574425  0.00917216    -0.74400
O1570       O  0.54347377  0.74570061  0.10181585    -0.74460
Ni1571     Ni  0.98964825  0.74750914  0.03737639     1.25410
Ni1572     Ni  0.55469370  0.78211942  0.05642896     1.25360
C1573       C  0.51007911  0.71753950  0.10751701     0.87800
C1574       C  0.53432872  0.81142913  0.98547035     0.87740
C1575       C  0.53201126  0.72216279  0.99574431     0.87760
C1576       C  0.51250703  0.80779901  0.09790001     0.87940
O1577       O  0.79438099  0.48697576  0.10291629    -0.74370
O1578       O  0.71949291  0.96971899  0.01923526    -0.74410
O1579       O  0.78411943  0.97035991  0.01620699    -0.74460
O1580       O  0.72957946  0.48682077  0.10515378    -0.74510
O1581       O  0.75976560  0.54853605  0.08713493    -0.74440
O1582       O  0.81672631  0.53288898  0.00202839    -0.74420
O1583       O  0.75148728  0.53145644  0.00108913    -0.74400
O1584       O  0.82495598  0.54938701  0.08790598    -0.74460
Ni1585     Ni  0.75583647  0.97621503  0.06144134     1.25410
Ni1586     Ni  0.78938041  0.54282243  0.04411946     1.25360
C1587       C  0.82234659  0.52102250  0.10838338     0.87800
C1588       C  0.72275096  0.99760649  0.99715567     0.87740
C1589       C  0.80969881  0.99897653  0.99507728     0.87760
C1590       C  0.73478232  0.52036764  0.10917964     0.87940
O1591       O  0.75239798  0.53374500  0.60281408    -0.74370
O1592       O  0.82484224  0.55595496  0.51400934    -0.74410
O1593       O  0.75943999  0.55403826  0.51882768    -0.74460
O1594       O  0.81754824  0.53503589  0.59922157    -0.74510
O1595       O  0.78540997  0.97346516  0.57849872    -0.74440
O1596       O  0.72949894  0.49311345  0.49569661    -0.74420
O1597       O  0.79474169  0.49433010  0.49401196    -0.74400
O1598       O  0.72026330  0.97268153  0.58019655    -0.74460
Ni1599     Ni  0.78981285  0.54690941  0.55943059     1.25410
Ni1600     Ni  0.75641657  0.98116884  0.53643747     1.25360
C1601       C  0.72361055  0.99986947  0.60465656     0.87800
C1602       C  0.82209029  0.52889431  0.48981717     0.87740
C1603       C  0.73431366  0.52652959  0.49512398     0.87760
C1604       C  0.81101980  0.00097792  0.60168829     0.87940
O1605       O  0.54957564  0.74384025  0.49645665    -0.74370
O1606       O  0.56194731  0.81730055  0.58322903    -0.74410
O1607       O  0.56628532  0.75387497  0.58325805    -0.74460
O1608       O  0.54466469  0.80720531  0.49669802    -0.74510
O1609       O  0.98404572  0.77008607  0.51171281    -0.74440
O1610       O  0.50590242  0.71888911  0.60019034    -0.74420
O1611       O  0.50108958  0.78280905  0.59827151    -0.74400
O1612       O  0.98939343  0.70742382  0.51422203    -0.74460
Ni1613     Ni  0.55779127  0.78187958  0.53937583     1.25410
Ni1614     Ni  0.99294957  0.74361103  0.55671946     1.25360
C1615       C  0.51750095  0.71317653  0.49185944     0.87800
C1616       C  0.53373868  0.81246769  0.60457287     0.87740
C1617       C  0.53962630  0.72728893  0.60554453     0.87760
C1618       C  0.51052578  0.79687700  0.48960179     0.87940
O1619       O  0.71864216  0.74617433  0.57552815    -0.74370
O1620       O  0.79795355  0.80911576  0.49692997    -0.74410
O1621       O  0.73108266  0.74156406  0.49045710    -0.74460
O1622       O  0.78459252  0.81386228  0.58301788    -0.74510
O1623       O  0.81373890  0.78338764  0.60069236    -0.74440
O1624       O  0.75973937  0.71056120  0.50797235    -0.74420
O1625       O  0.82614194  0.77785655  0.51560896    -0.74400
O1626       O  0.74757792  0.71557280  0.59390942    -0.74460
Ni1627     Ni  0.75715267  0.77892430  0.53586166     1.25410
Ni1628     Ni  0.78779923  0.74571767  0.55511924     1.25360
C1629       C  0.71993691  0.72020485  0.59692239     0.87800
C1630       C  0.82530533  0.80384442  0.49390912     0.87740
C1631       C  0.73593744  0.71361068  0.48472057     0.87760
C1632       C  0.80792723  0.81071086  0.60692258     0.87940
C1633       C  0.87143811  0.90759697  0.69192610    -0.05410
C1634       C  0.83235507  0.88489938  0.69565282    -0.32840
C1635       C  0.81127176  0.85212385  0.66947214     0.36410
C1636       C  0.82931159  0.84015715  0.64089203    -0.05770
C1637       C  0.86846888  0.86024067  0.64065477    -0.32740
C1638       C  0.88961237  0.89430747  0.66508976     0.36310
H1639       H  0.81782355  0.89491597  0.71546253     0.16680
O1640       O  0.77298349  0.83290743  0.67059500    -0.60240
H1641       H  0.88263986  0.85159036  0.61828469     0.16700
O1642       O  0.92722974  0.91693642  0.65766478    -0.60340
H1643       H  0.93821700  0.90254612  0.66946098     0.43690
H1644       H  0.76596858  0.84785552  0.65193748     0.43650
C1645       C  0.87390807  0.96877003  0.67966165    -0.05410
C1646       C  0.87732131  0.97059692  0.63418843    -0.32840
C1647       C  0.85738314  0.98198584  0.60904181     0.36410
C1648       C  0.83474482  0.99320588  0.62919398    -0.05770
C1649       C  0.83269035  0.99346536  0.67494517    -0.32740
C1650       C  0.85197762  0.98084713  0.70040790     0.36310
H1651       H  0.89394105  0.96109856  0.61796359     0.16680
O1652       O  0.85917376  0.98085965  0.56447828    -0.60240
H1653       H  0.81471327  0.50146971  0.69063654     0.16700
O1654       O  0.84699492  0.97744709  0.74482437    -0.60340
H1655       H  0.85779981  0.50393254  0.75629929     0.43690
H1656       H  0.84069747  0.95387548  0.55611112     0.43650
C1657       C  0.68810924  0.69411778  0.62373030    -0.05410
C1658       C  0.65447535  0.66787945  0.60265974    -0.32840
C1659       C  0.62203501  0.64606714  0.62673914     0.36410
C1660       C  0.62311322  0.65051827  0.67253340    -0.05770
C1661       C  0.65745271  0.67492418  0.69387064    -0.32740
C1662       C  0.69005375  0.69652234  0.66962331     0.36310
H1663       H  0.65303893  0.66544080  0.56730132     0.16680
O1664       O  0.58891670  0.62191483  0.60519659    -0.60240
H1665       H  0.65841720  0.67949730  0.72892769     0.16700
O1666       O  0.72283837  0.72227113  0.69069964    -0.60340
H1667       H  0.73550770  0.70805222  0.69631461     0.43690
H1668       H  0.58229628  0.63881415  0.58993898     0.43650
C1669       C  0.56973996  0.66024650  0.68261119    -0.05410
C1670       C  0.59145958  0.70047531  0.68463945    -0.32840
C1671       C  0.58101812  0.72268628  0.66146421     0.36650
C1672       C  0.54786604  0.70491144  0.63631011    -0.05770
C1673       C  0.52434253  0.66482672  0.63730067    -0.32740
C1674       C  0.53542076  0.64241289  0.65939238     0.36310
H1675       H  0.61801029  0.71477918  0.70204818     0.16680
O1676       O  0.60429753  0.76175344  0.66206961    -0.60240
H1677       H  0.49867695  0.65064995  0.61813444     0.16700
O1678       O  0.51382457  0.60324730  0.65568314    -0.60340
H1679       H  0.51685620  0.59701821  0.62518367     0.43690
H1680       H  0.59589267  0.77075598  0.68709368     0.43650
C1681       C  0.62672961  0.97289165  0.67829430    -0.05410
C1682       C  0.65713823  0.97431470  0.69966016    -0.32840
C1683       C  0.68980765  0.98434059  0.67654006     0.36410
C1684       C  0.69197309  0.99288783  0.63179400    -0.05770
C1685       C  0.66239861  0.99334876  0.61131585    -0.32740
C1686       C  0.63016232  0.98384002  0.63427687     0.36310
H1687       H  0.65467120  0.96551686  0.73339333     0.16680
O1688       O  0.71871623  0.98425913  0.69735430    -0.60240
H1689       H  0.66377335  0.49981895  0.57687902     0.16700
O1690       O  0.60092191  0.98252484  0.61246945    -0.60340
H1691       H  0.60294893  0.50713398  0.61983267     0.43690
H1692       H  0.71357777  0.95794238  0.69309785     0.43650
C1693       C  0.56534645  0.91108306  0.68327864    -0.05410
C1694       C  0.57909977  0.88735333  0.69307777    -0.32840
C1695       C  0.56719665  0.85370732  0.66919802     0.36410
C1696       C  0.53977321  0.84228340  0.63634232    -0.05770
C1697       C  0.52301612  0.86373828  0.62954393    -0.32740
C1698       C  0.53596712  0.89835317  0.65254475     0.36310
H1699       H  0.60156792  0.89661031  0.71680410     0.16680
O1700       O  0.58377217  0.83304951  0.67672867    -0.60240
H1701       H  0.50220821  0.85540839  0.60382215     0.16700
O1702       O  0.52269286  0.92133950  0.64139988    -0.60340
H1703       H  0.99811822  0.90987960  0.65579786     0.43690
H1704       H  0.60758580  0.84640511  0.66047310     0.43650
C1705       C  0.88402254  0.91688274  0.91922137    -0.05410
C1706       C  0.89380258  0.91648035  0.96289682    -0.32840
C1707       C  0.87252919  0.88389155  0.98804142     0.36410
C1708       C  0.84140477  0.85128126  0.96923656    -0.05770
C1709       C  0.83358020  0.85042872  0.92452511    -0.32740
C1710       C  0.85493469  0.88309737  0.89932311     0.36310
H1711       H  0.91602714  0.94241514  0.97846302     0.16680
O1712       O  0.88122596  0.88461317  0.03146857    -0.60240
H1713       H  0.80975066  0.82522635  0.90980438     0.16700
O1714       O  0.84478154  0.88302252  0.85659518    -0.60340
H1715       H  0.86106796  0.87729110  0.83911285     0.43690
H1716       H  0.87712974  0.90406308  0.04513991     0.43650
C1717       C  0.83237621  0.99287826  0.96353145    -0.05410
C1718       C  0.87146303  0.01431996  0.96777186    -0.32840
C1719       C  0.89328514  0.00410855  0.94380544     0.36410
C1720       C  0.87599265  0.97281841  0.91428657    -0.05770
C1721       C  0.83719781  0.95379144  0.90724135    -0.32740
C1722       C  0.81539604  0.96356281  0.93172360     0.36310
H1723       H  0.88486387  0.03717081  0.99201050     0.16680
O1724       O  0.93106069  0.02293579  0.95180177    -0.60240
H1725       H  0.82345350  0.92978362  0.88457143     0.16700
O1726       O  0.77735797  0.94321223  0.92569557    -0.60340
H1727       H  0.77232928  0.95862382  0.90521682     0.43690
H1728       H  0.93390387  0.01167770  0.97900521     0.43650
C1729       C  0.56659566  0.90721314  0.90302891    -0.05410
C1730       C  0.58430981  0.88627741  0.89940070    -0.32840
C1731       C  0.57270268  0.85356302  0.92423796     0.36410
C1732       C  0.54174073  0.84003031  0.95173138    -0.05770
C1733       C  0.52070871  0.85755215  0.95072945    -0.32740
C1734       C  0.53331971  0.89148307  0.92735734     0.36310
H1735       H  0.61001724  0.89794079  0.88121937     0.16680
O1736       O  0.59355136  0.83677747  0.92397397    -0.60240
H1737       H  0.49667620  0.84728109  0.97168016     0.16700
O1738       O  0.51542889  0.91114174  0.93264871    -0.60340
H1739       H  0.52210315  0.92244574  0.96254985     0.43690
H1740       H  0.58048916  0.81493136  0.90306106     0.43650
C1741       C  0.69090293  0.99053335  0.97024849    -0.05410
C1742       C  0.65641833  0.97422141  0.99082826    -0.32840
C1743       C  0.62425757  0.96434215  0.96713640     0.36410
C1744       C  0.62589935  0.96881480  0.92142389    -0.05770
C1745       C  0.66074497  0.98612337  0.90070060    -0.32740
C1746       C  0.69345046  0.49788961  0.92520815     0.36310
H1747       H  0.65427401  0.96847993  0.02555947     0.16680
O1748       O  0.59112051  0.94975912  0.98884683    -0.60240
H1749       H  0.66232954  0.98892918  0.86547048     0.16700
O1750       O  0.72709096  0.51360903  0.90446812    -0.60340
H1751       H  0.73733581  0.54156092  0.90469705     0.43690
H1752       H  0.58533531  0.92472999  0.00038992     0.43650
C1753       C  0.69504278  0.70761510  0.96005527    -0.05410
C1754       C  0.68158331  0.72644413  0.93513562    -0.32840
C1755       C  0.64863609  0.70574517  0.91034628     0.36410
C1756       C  0.62761739  0.66535986  0.91121482    -0.05770
C1757       C  0.64238168  0.64647683  0.93391193    -0.32740
C1758       C  0.67621444  0.66734946  0.95755162     0.36310
H1759       H  0.69592384  0.75740924  0.93627765     0.16680
O1760       O  0.63559622  0.72536810  0.88817072    -0.60240
H1761       H  0.62629595  0.61555783  0.93612923     0.16700
O1762       O  0.68840031  0.64801234  0.98183814    -0.60340
H1763       H  0.70397969  0.64331343  0.96166521     0.43690
H1764       H  0.64167429  0.72439937  0.85708655     0.43650
C1765       C  0.56448502  0.65670419  0.92166171    -0.05410
C1766       C  0.55048094  0.67661654  0.89980300    -0.32840
C1767       C  0.53677011  0.69587904  0.92361315     0.36410
C1768       C  0.53817836  0.69613399  0.96953336    -0.05770
C1769       C  0.55024684  0.67462540  0.99116037    -0.32740
C1770       C  0.56285182  0.65455119  0.96759296     0.36310
H1771       H  0.55251062  0.67935781  0.86457847     0.16680
O1772       O  0.52538372  0.71716978  0.90197152    -0.60240
H1773       H  0.55126700  0.67463811  0.02654936     0.16700
O1774       O  0.57617751  0.63523944  0.98989350    -0.60340
H1775       H  0.55551165  0.60802631  0.98892970     0.43690
H1776       H  0.99805081  0.69973631  0.89762965     0.43650
C1777       C  0.98366980  0.61703285  0.40915760    -0.05410
C1778       C  0.49090046  0.61556247  0.45369526    -0.32840
C1779       C  0.50503626  0.64801447  0.48029626     0.36410
C1780       C  0.01258926  0.68263307  0.46229958    -0.05770
C1781       C  0.00992075  0.68548762  0.41685784    -0.32740
C1782       C  0.99537099  0.65257869  0.38998764     0.36310
H1783       H  0.48213154  0.58830512  0.46866800     0.16680
O1784       O  0.50815212  0.64484429  0.52453773    -0.60240
H1785       H  0.01632094  0.71236765  0.40277370     0.16700
O1786       O  0.99048198  0.65470286  0.34586064    -0.60340
H1787       H  0.97356584  0.66457621  0.34285195     0.43690
H1788       H  0.53478226  0.65362155  0.52981527     0.43650
C1789       C  0.91691152  0.56293941  0.40715539    -0.05410
C1790       C  0.90116878  0.52903947  0.43150417    -0.32840
C1791       C  0.86776553  0.51531217  0.45452117     0.36410
C1792       C  0.85185655  0.53793720  0.45786898    -0.05770
C1793       C  0.86705731  0.57157052  0.43355479    -0.32740
C1794       C  0.89861615  0.58356385  0.40752888     0.36310
H1795       H  0.91548101  0.51375449  0.43480394     0.16680
O1796       O  0.85096882  0.98017735  0.47429328    -0.60240
H1797       H  0.85459657  0.58887880  0.43504666     0.16700
O1798       O  0.91172138  0.61588150  0.38302954    -0.60340
H1799       H  0.92121311  0.63740181  0.40442950     0.43690
H1800       H  0.87097140  0.97582831  0.48397321     0.43650
C1801       C  0.92053861  0.55493938  0.18258222    -0.05410
C1802       C  0.88742353  0.54426901  0.20484544    -0.32840
C1803       C  0.85396004  0.53067889  0.18125476     0.36410
C1804       C  0.85392383  0.52767542  0.13541318    -0.05770
C1805       C  0.88620647  0.53506729  0.11389377    -0.32740
C1806       C  0.91931575  0.54826572  0.13720437     0.36310
H1807       H  0.88816327  0.54925707  0.23979170     0.16680
O1808       O  0.82216822  0.52260163  0.20278671    -0.60240
H1809       H  0.88614824  0.53235704  0.07858020     0.16700
O1810       O  0.95117548  0.55775084  0.11484048    -0.60340
H1811       H  0.95441454  0.53570816  0.11861295     0.43690
H1812       H  0.82276693  0.54705856  0.20372801     0.43650
C1813       C  0.97781719  0.62065610  0.18848685    -0.05410
C1814       C  0.51017152  0.63555056  0.16309791    -0.32840
C1815       C  0.52309225  0.66938312  0.13948710     0.36410
C1816       C  0.00269948  0.68779396  0.13968350    -0.05770
C1817       C  0.97193020  0.67431083  0.16717119    -0.32740
C1818       C  0.96003011  0.64165762  0.19217447     0.36310
H1819       H  0.52389577  0.61965267  0.15898093     0.16680
O1820       O  0.55339155  0.68195848  0.11292409    -0.60240
H1821       H  0.95627837  0.68845377  0.16814833     0.16700
O1822       O  0.92917712  0.62893144  0.21785892    -0.60340
H1823       H  0.93911078  0.63647219  0.24816295     0.43690
H1824       H  0.57539900  0.69866256  0.13189610     0.43650
C1825       C  0.92084888  0.86126618  0.41297152    -0.05410
C1826       C  0.92448568  0.86691177  0.45848626    -0.32840
C1827       C  0.89303732  0.85002617  0.48496282     0.36410
C1828       C  0.85722072  0.82808479  0.46596824    -0.05770
C1829       C  0.85322030  0.82442961  0.42032833    -0.32740
C1830       C  0.88491628  0.84071624  0.39367073     0.36310
H1831       H  0.95194724  0.88267222  0.47376024     0.16680
O1832       O  0.89754623  0.85396897  0.52957009    -0.60240
H1833       H  0.82572440  0.80670324  0.40557269     0.16700
O1834       O  0.88077549  0.83313664  0.34949497    -0.60340
H1835       H  0.86679803  0.84465963  0.33816060     0.43690
H1836       H  0.90305979  0.83430179  0.53866094     0.43650
C1837       C  0.97611598  0.85434455  0.40243482    -0.05410
C1838       C  0.95724542  0.81423701  0.40228550    -0.32840
C1839       C  0.96908793  0.79521670  0.42928757     0.36410
C1840       C  0.00109310  0.81628815  0.45607407    -0.05770
C1841       C  0.52177638  0.85639171  0.45375373    -0.32740
C1842       C  0.50917016  0.87556376  0.42776668     0.36310
H1843       H  0.93136760  0.79755268  0.38382343     0.16680
O1844       O  0.94858823  0.75595602  0.43018043    -0.60240
H1845       H  0.54604998  0.87298030  0.47480684     0.16700
O1846       O  0.52637013  0.91461712  0.43173404    -0.60340
H1847       H  0.55244366  0.92527186  0.42204570     0.43690
H1848       H  0.92697914  0.74923649  0.44914857     0.43650
C1849       C  0.85588904  0.82894650  0.14169572    -0.05410
C1850       C  0.87063959  0.81123338  0.16621820    -0.32840
C1851       C  0.90437455  0.83306843  0.18942936     0.36410
C1852       C  0.92503595  0.87343579  0.18654788    -0.05770
C1853       C  0.90844126  0.89114542  0.16523330    -0.32740
C1854       C  0.87339262  0.86909615  0.14438117     0.36310
H1855       H  0.85670179  0.78029336  0.16601353     0.16680
O1856       O  0.91796686  0.81471178  0.21326927    -0.60240
H1857       H  0.92372230  0.92198403  0.16209959     0.16700
O1858       O  0.85824099  0.88722996  0.12339808    -0.60340
H1859       H  0.84323318  0.89055657  0.14585218     0.43690
H1860       H  0.92266311  0.79949971  0.19179760     0.43650
C1861       C  0.98619191  0.87938435  0.17089686    -0.05410
C1862       C  0.49920792  0.85859667  0.19289185    -0.32840
C1863       C  0.51013855  0.83671436  0.16938445     0.36410
C1864       C  0.00690969  0.83458498  0.12355949    -0.05770
C1865       C  0.99537016  0.85641349  0.10155097    -0.32740
C1866       C  0.98519899  0.87884769  0.12485074     0.36310
H1867       H  0.49848581  0.85725018  0.22825912     0.16680
O1868       O  0.52082525  0.81503809  0.19148591    -0.60240
H1869       H  0.99316816  0.85514471  0.06614778     0.16700
O1870       O  0.97293065  0.89910623  0.10248858    -0.60340
H1871       H  0.94749263  0.87975429  0.09160038     0.43690
H1872       H  0.54827898  0.83186274  0.19536354     0.43650
C1873       C  0.67942830  0.61930928  0.18925900    -0.05410
C1874       C  0.65893744  0.63239238  0.16694545    -0.32840
C1875       C  0.67739813  0.66621586  0.14257483     0.36410
C1876       C  0.71656060  0.68634157  0.13906840    -0.05770
C1877       C  0.73690258  0.67447826  0.16325953    -0.32740
C1878       C  0.71879784  0.64148833  0.18820057     0.36310
H1879       H  0.62871891  0.61529235  0.16594385     0.16680
O1880       O  0.65683051  0.67725643  0.11914838    -0.60240
H1881       H  0.76712838  0.69002646  0.16132526     0.16700
O1882       O  0.73988239  0.63024848  0.21024082    -0.60340
H1883       H  0.75049734  0.62153844  0.18733852     0.43690
H1884       H  0.65305053  0.69383319  0.13948954     0.43650
C1885       C  0.70982190  0.52682848  0.13635247    -0.05410
C1886       C  0.71232035  0.52794885  0.18224692    -0.32840
C1887       C  0.69406172  0.54225416  0.20712820     0.36410
C1888       C  0.67261063  0.55475716  0.18574391    -0.05770
C1889       C  0.66772954  0.55021895  0.14026482    -0.32740
C1890       C  0.68632629  0.53677901  0.11555669     0.36310
H1891       H  0.73041748  0.52033821  0.19850982     0.16680
O1892       O  0.69927292  0.54624042  0.25164471    -0.60240
H1893       H  0.65147503  0.55986346  0.12337962     0.16700
O1894       O  0.68395604  0.53647214  0.07071060    -0.60340
H1895       H  0.65692171  0.52069013  0.06331437     0.43690
H1896       H  0.72496648  0.56852877  0.25640706     0.43650
C1897       C  0.66739623  0.61357176  0.40655787    -0.05410
C1898       C  0.65089224  0.62993067  0.43084786    -0.32840
C1899       C  0.67317366  0.66491781  0.45314590     0.36410
C1900       C  0.71242775  0.68318459  0.45253987    -0.05770
C1901       C  0.72877312  0.66887812  0.42487786    -0.32740
C1902       C  0.70654399  0.63493361  0.40103683     0.36310
H1903       H  0.62104677  0.61379635  0.43633816     0.16680
O1904       O  0.65637647  0.67841538  0.47974339    -0.60240
H1905       H  0.75892425  0.68307303  0.42340944     0.16700
O1906       O  0.72366461  0.62064000  0.37626292    -0.60340
H1907       H  0.71920410  0.62472883  0.34547638     0.43690
H1908       H  0.65098452  0.69434557  0.46061432     0.43650
C1909       C  0.70868508  0.53307169  0.46980202    -0.05410
C1910       C  0.68959487  0.54737696  0.49212225    -0.32840
C1911       C  0.66633777  0.55624483  0.46962910     0.36410
C1912       C  0.66284335  0.55196777  0.42380492    -0.05770
C1913       C  0.68103973  0.53638584  0.40147884    -0.32740
C1914       C  0.70323652  0.52601966  0.42450045     0.36310
H1915       H  0.69325967  0.55237473  0.52715302     0.16680
O1916       O  0.64785769  0.57015758  0.49245828    -0.60240
H1917       H  0.67974208  0.53428703  0.36610659     0.16700
O1918       O  0.72175836  0.01195790  0.40214945    -0.60340
H1919       H  0.70402485  0.98386520  0.40059799     0.43690
H1920       H  0.66752652  0.59588724  0.50342543     0.43650
loop_ 
_geom_bond_atom_site_label_1 
_geom_bond_atom_site_label_2 
_geom_bond_distance 
_geom_bond_site_symmetry_2 
_ccdc_geom_bond_type 
C1            C2   1.355       .  D
C1           C40   1.563       .  S
C1          C495   1.582       .  S
C2          C457   1.493       .  S
C2          C472   1.482       .  S
C3            C4   1.350       .  D
C3           C38   1.557       .  S
C3          C497   1.536       .  S
C4          C433   1.492       .  S
C4          C448   1.490       .  S
O5          Ni13   2.058       .  S
O5           C15   1.310       .  A
O6          Ni13   2.016       .  S
O6           C16   1.304       .  A
O7          Ni13   2.058       .  S
O7           C17   1.296       .  A
O8          Ni13   2.070       .  S
O8           C18   1.305       .  A
O9          Ni14   1.840       .  S
O9           C18   1.232       .  A
O10         Ni14   1.880       .  S
O10          C17   1.223       .  A
O11         Ni14   1.913       .  S
O11          C16   1.256       .  A
O12         Ni14   1.936       .  S
O12          C15   1.252       .  A
Ni13        Ni14   2.170       .  S
C15         C481   1.582       .  S
C16         C980   1.542   1_455  S
C17         C483   1.536       .  S
C18         C981   1.557   1_455  S
C19          C20   1.366       .  D
C19         C412   1.500       .  S
C19         C421   1.488       .  S
C20          C52   1.555       .  S
C20         C976   1.542       .  S
C21          C22   1.352       .  D
C21          C54   1.559       .  S
C21         C978   1.557       .  S
C22         C385   1.486       .  S
C22         C397   1.489       .  S
C23          C24   1.347       .  D
C23         C999   1.548       .  S
C23         C533   1.551       .  S
C24         C361   1.476       .  S
C24         C373   1.493       .  S
C25          C26   1.360       .  D
C25         C997   1.588       .  S
C25         C531   1.557       .  S
C26         C337   1.478       .  S
C26         C349   1.510       .  S
O27         Ni35   2.034       .  S
O27          C37   1.291       .  A
O28         Ni35   2.052       .  S
O28          C38   1.306       .  A
O29         Ni35   2.047       .  S
O29          C39   1.305       .  A
O30         Ni35   2.041       .  S
O30          C40   1.304       .  A
O31         Ni36   1.810       .  S
O31          C40   1.245       .  A
O32         Ni36   1.861       .  S
O32          C39   1.240       .  A
O33         Ni36   1.859       .  S
O33          C38   1.253       .  A
O34         Ni36   1.900       .  S
O34          C37   1.253       .  A
Ni35        Ni36   2.308       .  S
C37         C985   1.588   1_455  S
C39         C983   1.548   1_455  S
O41        Ni529   1.875   1_545  S
O41         C531   1.216       .  A
O42         Ni49   1.922       .  S
O42          C52   1.283       .  A
O43        Ni529   1.898   1_545  S
O43         C533   1.224       .  A
O44         Ni49   1.810       .  S
O44          C54   1.245       .  A
O45         Ni50   2.071       .  S
O45          C54   1.318       .  A
O46         Ni50   2.036       .  S
O46          C53   1.282       .  A
O47         Ni50   1.970       .  S
O47          C52   1.290       .  A
O48         Ni50   2.075       .  S
O48          C51   1.310       .  A
Ni49        O521   1.875       .  S
Ni49        O523   1.898       .  S
Ni49        Ni50   2.274       .  S
C51         C505   1.557       .  S
C51         O521   1.216       .  A
C53         C503   1.551       .  S
C53         O523   1.224       .  A
C55          C56   1.355       .  D
C55         C316   1.498       .  S
C55         C325   1.481       .  S
C56          C74   1.535       .  S
C56          C94   1.594       .  S
C57          C58   1.354       .  D
C57         C107   1.569       .  S
C57         C555   1.589       .  S
C58         C289   1.496       .  S
C58         C304   1.486       .  S
C59          C60   1.343       .  D
C59         C265   1.472       .  S
C59         C280   1.484       .  S
C60         C106   1.567       .  S
C60         C571   1.531       .  S
C61          C62   1.348       .  D
C61         C105   1.564       .  S
C61         C553   1.536       .  S
C62         C241   1.485       .  S
C62         C253   1.483       .  S
O63         Ni71   2.076       .  S
O63          C73   1.297       .  A
O64         Ni71   2.077       .  S
O64          C74   1.318       .  A
O65         Ni71   2.095       .  S
O65          C75   1.311       .  A
O66         Ni71   1.994       .  S
O66          C76   1.289       .  A
O67         Ni72   1.991       .  S
O67          C76   1.298       .  A
O68         Ni72   1.956       .  S
O68          C75   1.231       .  A
O69         Ni72   1.706       .  S
O69          C74   1.216       .  A
O70         Ni72   1.885   1_565  S
O70          C73   1.209   1_565  A
Ni71        Ni72   2.172       .  S
C73         C541   1.536   1_545  S
C75         C537   1.589   1_545  S
C76          C78   1.598       .  S
C77          C78   1.355       .  D
C77         C220   1.478       .  S
C77         C229   1.497       .  S
C78          C92   1.526       .  S
C79          C80   1.350       .  D
C79         C108   1.565       .  S
C79         C573   1.582       .  S
C80         C193   1.491       .  S
C80         C205   1.478       .  S
O81         Ni89   2.078       .  S
O81          C91   1.301       .  A
O82         Ni89   2.074       .  S
O82        C1052   1.314       .  A
O83         Ni89   2.074       .  S
O83          C93   1.308       .  A
O84         Ni89   2.004       .  S
O84        C1054   1.293       .  A
O85       Ni1050   1.974   1_455  S
O85          C94   1.292       .  A
O86         Ni90   1.959       .  S
O86          C93   1.239       .  A
O87       Ni1050   1.724   1_455  S
O87          C92   1.209       .  A
O88         Ni90   1.873   1_565  S
O88          C91   1.206   1_565  A
Ni89        Ni90   2.156       .  S
Ni90       O1045   1.974       .  S
Ni90       O1047   1.724       .  S
C91         C540   1.531   1_545  S
C92        O1042   1.314       .  A
C93         C559   1.582   1_545  S
C94        O1044   1.293       .  A
O95       Ni1063   1.878       .  S
O95         C105   1.255       .  A
O96        Ni103   1.880       .  S
O96         C106   1.257       .  A
O97       Ni1063   1.762       .  S
O97         C107   1.231       .  A
O98        Ni103   1.756       .  S
O98         C108   1.233       .  A
O99        Ni104   2.052       .  S
O99         C108   1.301       .  A
O100       Ni104   2.052       .  S
O100       C1067   1.300       .  A
O101       Ni104   2.048       .  S
O101        C106   1.307       .  A
O102       Ni104   2.046       .  S
O102       C1065   1.304       .  A
Ni103      O1055   1.878       .  S
Ni103      O1057   1.762       .  S
Ni103      Ni104   2.300       .  S
C105       O1062   1.304       .  A
C107       O1060   1.300       .  A
O109       Ni117   1.924       .  S
O109        C119   1.284       .  A
O110       Ni117   1.929   1_556  S
O110        C120   1.283       .  A
O111       Ni117   1.910       .  S
O111        C121   1.277   1_554  A
O112       Ni117   1.898       .  S
O112        C122   1.279       .  A
O113       Ni118   1.930       .  S
O113        C122   1.282       .  A
O114       Ni118   1.918       .  S
O114        C121   1.282   1_554  A
O115       Ni118   1.918       .  S
O115        C120   1.282   1_554  A
O116       Ni118   1.922       .  S
O116        C119   1.280       .  A
Ni117      Ni118   2.391       .  S
C119        C409   1.481       .  S
C120        C313   1.482       .  S
C121        C268   1.462       .  S
C122        C436   1.471       .  S
O123       Ni131   1.922       .  S
O123       C1093   1.283       .  A
O124      Ni1091   1.919   1_456  S
O124        C134   1.280       .  A
O125      Ni1091   1.918   1_556  S
O125        C135   1.280   1_655  A
O126       Ni131   1.910       .  S
O126       C1096   1.280       .  A
O127       Ni132   1.918       .  S
O127        C136   1.279       .  A
O128       Ni132   1.904       .  S
O128        C135   1.279   1_554  A
O129       Ni132   1.923       .  S
O129        C134   1.284   1_554  A
O130       Ni132   1.920       .  S
O130        C133   1.280       .  A
Ni131      O1084   1.919   1_554  S
Ni131      O1085   1.918   1_554  S
Ni131     Ni1092   2.393       .  S
Ni132     Ni1091   2.393   1_455  S
C133       O1083   1.283   1_455  A
C133       C1336   1.477       .  S
C134        C292   1.477       .  S
C135        C328   1.460       .  S
C136       O1086   1.280   1_455  A
C136       C1384   1.463       .  S
O137       Ni625   1.910       .  S
O137        C147   1.277   1_565  A
O138       Ni145   1.902       .  S
O138        C148   1.279   1_554  A
O139       Ni145   1.924       .  S
O139        C149   1.284   1_554  A
O140       Ni625   1.926       .  S
O140        C150   1.281   1_565  A
O141       Ni146   1.913       .  S
O141        C150   1.281       .  A
O142       Ni146   1.910       .  S
O142        C629   1.278   1_544  A
O143       Ni146   1.916       .  S
O143        C628   1.279   1_544  A
O144       Ni146   1.911       .  S
O144        C147   1.281       .  A
Ni145       O617   1.910       .  S
Ni145       O620   1.926       .  S
Ni145      Ni626   2.394       .  S
Ni146      Ni625   2.394   1_545  S
C147        C364   1.458       .  S
C148        O623   1.279   1_556  A
C148        C301   1.460       .  S
C149        O622   1.278   1_556  A
C149        C277   1.470       .  S
C150        C445   1.471       .  S
O151       Ni159   1.916       .  S
O151        C641   1.279   1_545  A
O152       Ni159   1.923       .  S
O152        C162   1.283       .  A
O153       Ni159   1.908       .  S
O153        C163   1.281       .  A
O154       Ni159   1.916       .  S
O154        C644   1.279       .  A
O155       Ni160   1.907       .  S
O155        C164   1.279       .  A
O156       Ni640   1.911       .  S
O156        C163   1.278   1_565  A
O157       Ni640   1.922       .  S
O157        C162   1.282   1_565  A
O158       Ni160   1.924       .  S
O158        C161   1.283       .  A
Ni159      Ni640   2.393   1_545  S
Ni160       O636   1.911       .  S
Ni160       O637   1.922       .  S
Ni160      Ni639   2.393       .  S
C161        O631   1.279       .  A
C161        C244   1.469       .  S
C162        C352   1.481       .  S
C163        C469   1.461       .  S
C164        O634   1.279       .  A
C164        C208   1.462       .  S
O165       Ni173   1.917       .  S
O165        C175   1.278       .  A
O166       Ni173   1.908       .  S
O166        C176   1.280       .  A
O167       Ni173   1.925       .  S
O167        C177   1.284       .  A
O168       Ni173   1.926       .  S
O168        C178   1.282       .  A
O169       Ni174   1.914       .  S
O169       C1138   1.281       .  A
O170      Ni1134   1.922   1_455  S
O170        C177   1.281       .  A
O171      Ni1134   1.924   1_455  S
O171        C176   1.281       .  A
O172       Ni174   1.911       .  S
O172       C1135   1.281       .  A
Ni173     Ni1134   2.391   1_455  S
Ni174      O1130   1.922       .  S
Ni174      O1131   1.924       .  S
Ni174     Ni1133   2.391       .  S
C175       O1132   1.281   1_455  A
C175       C1300   1.463       .  S
C176        C256   1.469       .  S
C177        C232   1.482       .  S
C178       O1129   1.281   1_455  A
C178       C1360   1.479       .  S
O179       Ni187   1.914       .  S
O179        C189   1.281       .  A
O180       Ni187   1.927       .  S
O180        C190   1.282       .  A
O181       Ni187   1.913       .  S
O181        C191   1.279       .  A
O182       Ni187   1.916       .  S
O182        C192   1.281       .  A
O183       Ni188   1.922       .  S
O183        C192   1.281       .  A
O184       Ni188   1.925       .  S
O184        C191   1.284       .  A
O185       Ni188   1.901       .  S
O185        C190   1.278       .  A
O186       Ni188   1.910       .  S
O186        C189   1.277       .  A
Ni187      Ni188   2.393       .  S
C189        C217   1.460       .  S
C190        C388   1.465       .  S
C191        C460   1.475       .  S
C192        C196   1.474       .  S
C193        C194   1.406       .  A
C193        C198   1.412       .  A
C194        C195   1.399       .  A
C194        H199   1.084       .  S
C195        C196   1.405       .  A
C195        O200   1.372       .  S
C196        C197   1.402       .  A
C197        C198   1.404       .  A
C197        H201   1.083       .  S
C198        O202   1.372       .  S
O200        H204   0.992       .  S
O202        H203   0.991       .  S
C205        C206   1.397       .  A
C205        C210   1.408       .  A
C206        C207   1.388       .  A
C206        H211   1.084       .  S
C207        C208   1.401       .  A
C207        O212   1.367       .  S
C208        C209   1.402       .  A
C209        C210   1.406       .  A
C209        H693   1.083       .  S
C210        O214   1.372       .  S
O212        H216   0.992       .  S
H213        C689   1.083   1_545  S
O214        H695   0.992       .  S
H215        O694   0.992   1_545  S
C217        C218   1.397       .  A
C217        C222   1.405       .  A
C218        C219   1.395       .  A
C218        H223   1.083       .  S
C219        C220   1.408       .  A
C219        O224   1.372       .  S
C220        C221   1.404       .  A
C221        C222   1.401       .  A
C221        H225   1.083       .  S
C222        O226   1.371       .  S
O224        H228   0.992       .  S
O226        H227   0.992       .  S
C229        C230   1.407       .  A
C229        C234   1.411       .  A
C230        C231   1.399       .  A
C230        H235   1.083       .  S
C231        C232   1.406       .  A
C231        O236   1.371       .  S
C232        C233   1.407       .  A
C233        C234   1.407       .  A
C233        H237   1.083   1_455  S
C234        O238   1.373       .  S
O236        H240   0.992       .  S
O238        H239   0.991       .  S
C241        C242   1.407       .  A
C241        C246   1.407       .  A
C242        C243   1.407       .  A
C242        H247   1.083       .  S
C243        C244   1.407       .  A
C243        O248   1.371       .  S
C244        C245   1.399       .  A
C245        C246   1.394       .  A
C245        H729   1.083       .  S
C246        O250   1.372       .  S
O248        H252   0.992       .  S
H249        C725   1.083       .  S
O250        H731   0.992       .  S
H251        O730   0.992   1_545  S
C253        C254   1.404       .  A
C253        C258   1.408       .  A
C254        C255   1.394       .  A
C254        H259   1.083       .  S
C255        C256   1.403       .  A
C255        O260   1.373       .  S
C256        C257   1.404       .  A
C257        C258   1.406       .  A
C257        H261   1.084       .  S
C258        O262   1.370       .  S
O260        H264   0.992       .  S
O262       H1223   0.991   1_455  S
H263       O1222   0.991       .  S
C265        C266   1.398       .  A
C265        C270   1.408       .  A
C266        C267   1.396       .  A
C266        H271   1.083       .  S
C267        C268   1.404       .  A
C267        O272   1.371   1_556  S
C268        C269   1.400       .  A
C269        C270   1.400       .  A
C269        H273   1.084       .  S
C270        O274   1.372       .  S
O272        H276   0.991       .  S
O274        H275   0.991       .  S
C277        C278   1.403       .  A
C277        C282   1.405       .  A
C278        C279   1.401       .  A
C278        H283   1.084       .  S
C279        C280   1.409       .  A
C279        O284   1.372       .  S
C280        C281   1.405       .  A
C281        C282   1.398       .  A
C281        H285   1.082       .  S
C282        O286   1.371       .  S
O284        H288   0.992       .  S
O286        H287   0.992       .  S
C289        C290   1.408       .  A
C289        C294   1.414       .  A
C290        C291   1.397       .  A
C290        H295   1.084       .  S
C291        C292   1.404       .  A
C291        O296   1.372       .  S
C292        C293   1.404       .  A
C293        C294   1.407       .  A
C293        H297   1.084   1_455  S
C294        O298   1.373       .  S
O296        H300   0.992       .  S
O298        H299   0.991       .  S
C301        C302   1.395       .  A
C301        C786   1.405       .  A
C302        C303   1.388       .  A
C302        H307   1.084   1_556  S
C303        C304   1.409       .  A
C303        O308   1.372       .  S
C304        C305   1.407       .  A
C305        C786   1.404       .  A
C305        H309   1.083       .  S
C306        C781   1.405       .  A
C306        C785   1.404       .  A
C306        O310   1.371   1_565  S
O308        H312   0.992   1_556  S
O310        H311   0.992       .  S
C313        C314   1.402       .  A
C313        C318   1.410       .  A
C314        C315   1.398       .  A
C314        H319   1.084       .  S
C315        C316   1.412       .  A
C315        O320   1.372       .  S
C316        C317   1.407       .  A
C317        C318   1.406       .  A
C317        H321   1.083       .  S
C318        O322   1.371       .  S
O320        H324   0.992       .  S
O322        H323   0.992       .  S
C325        C326   1.405       .  A
C325        C330   1.408       .  A
C326        C327   1.402       .  A
C326        H331   1.083       .  S
C327        C328   1.405       .  A
C327        O332   1.371       .  S
C328        C329   1.398       .  A
C329        C330   1.391       .  A
C329        H333   1.083   1_556  S
C330        O334   1.372       .  S
O332       H1296   0.992   1_455  S
O334        H335   0.991       .  S
H336       O1292   0.992       .  S
C337        C342   1.407       .  A
C337       C1298   1.402       .  A
C338        C339   1.391   1_655  A
C338       C1297   1.402       .  A
C338        H343   1.084       .  S
C339       C1300   1.402       .  A
C339        O344   1.372       .  S
C340       C1135   1.463       .  S
C340        C341   1.404       .  A
C340       C1299   1.402       .  A
C341        C342   1.408       .  A
C341        H345   1.083       .  S
C342        O346   1.374       .  S
O344        H348   0.992       .  S
O346        H347   0.992       .  S
C349        C350   1.409       .  A
C349        C354   1.413       .  A
C350        C351   1.405       .  A
C350        H355   1.080       .  S
C351        C352   1.406       .  A
C351        O836   1.376   1_545  S
C352        C353   1.401       .  A
C353        C354   1.404       .  A
C353        H357   1.084       .  S
C354        O358   1.371       .  S
O356        C831   1.376       .  S
O356        H360   0.992       .  S
O358        H359   0.992       .  S
C361        C362   1.404       .  A
C361        C366   1.407       .  A
C362        C363   1.403       .  A
C362        H367   1.083       .  S
C363        C364   1.406       .  A
C363        O368   1.371       .  S
C364        C365   1.397       .  A
C365        C366   1.389       .  A
C365        H369   1.084       .  S
C366        O370   1.372       .  S
O368        H372   0.992       .  S
O370        H371   0.992       .  S
C373        C378   1.413       .  A
C373       C1334   1.405       .  A
C374        C375   1.405       .  A
C374       C1333   1.405   1_455  A
C374        H379   1.083       .  S
C375       C1336   1.411       .  A
C375        O380   1.371       .  S
C376       C1093   1.477       .  S
C376        C377   1.399       .  A
C376       C1335   1.411       .  A
C377        C378   1.396       .  A
C377        H381   1.084       .  S
C378        O382   1.371       .  S
O380        H384   0.992       .  S
O382        H383   0.992       .  S
C385        C386   1.403       .  A
C385        C390   1.409       .  A
C386        C387   1.394       .  A
C386        H391   1.083       .  S
C387        C388   1.404       .  A
C387        O392   1.372       .  S
C388        C389   1.402       .  A
C389        C390   1.405       .  A
C389        H393   1.084       .  S
C390        O394   1.373       .  S
O392        H396   0.992       .  S
O394        H395   0.992       .  S
C397        C398   1.403       .  A
C397       C1362   1.412       .  A
C398        C399   1.399       .  A
C398        H403   1.084       .  S
C399        C400   1.408       .  A
C399        O404   1.372       .  S
C400       C1138   1.479       .  S
C400       C1361   1.404       .  A
C401        C402   1.407       .  A
C401       C1360   1.404       .  A
C401        H405   1.084       .  S
C402       C1357   1.412   1_455  A
C402        O406   1.373       .  S
O404        H408   0.992       .  S
O406        H407   0.992       .  S
C409        C410   1.399       .  A
C409        C414   1.410       .  A
C410        C411   1.400       .  A
C410        H415   1.084       .  S
C411        C412   1.414       .  A
C411        O416   1.373       .  S
C412        C413   1.407       .  A
C413        C414   1.406       .  A
C413        H417   1.083       .  S
C414        O418   1.370       .  S
O416        H420   0.992       .  S
O418        H419   0.992       .  S
C421        C426   1.408       .  A
C421       C1382   1.407       .  A
C422        C423   1.401   1_655  A
C422       C1381   1.407       .  A
C422        H427   1.083       .  S
C423       C1384   1.404       .  A
C423        O428   1.371       .  S
C424       C1096   1.463       .  S
C424        C425   1.399       .  A
C424       C1383   1.404       .  A
C425        C426   1.395       .  A
C425        H429   1.084       .  S
C426        O430   1.373       .  S
O428        H432   0.992       .  S
O430        H431   0.992       .  S
C433        C434   1.409       .  A
C433        C438   1.410       .  A
C434        C435   1.407       .  A
C434        H439   1.082       .  S
C435        C436   1.407       .  A
C435        O440   1.371       .  S
C436        C437   1.398       .  A
C437        C438   1.392       .  A
C437        H441   1.084       .  S
C438        O442   1.373       .  S
O440        H444   0.992       .  S
O442        H443   0.993       .  S
C445        C446   1.405       .  A
C445        C450   1.404       .  A
C446        C447   1.410       .  A
C446        H451   1.083       .  S
C447        C448   1.412       .  A
C447        O452   1.372       .  S
C448        C449   1.401       .  A
C449        C450   1.394       .  A
C449        H453   1.084       .  S
C450        O454   1.374       .  S
O452        H456   0.991       .  S
O454        H455   0.992       .  S
C457        C458   1.405       .  A
C457        C462   1.413       .  A
C458        C459   1.403       .  A
C458        H463   1.083       .  S
C459        C460   1.410       .  A
C459        O464   1.371       .  S
C460        C461   1.399       .  A
C461        C462   1.397       .  A
C461        H465   1.084       .  S
C462        O466   1.372       .  S
O464        H468   0.991       .  S
O466        H467   0.992       .  S
C469        C470   1.397       .  A
C469        C474   1.405       .  A
C470        C471   1.391       .  A
C470        H475   1.084       .  S
C471        C472   1.408       .  A
C471        O476   1.373       .  S
C472        C473   1.406       .  A
C473        C474   1.402       .  A
C473        H477   1.083       .  S
C474        O958   1.371       .  S
O476        H480   0.992       .  S
O478        C954   1.371       .  S
O478        H479   0.992       .  S
C481        C482   1.355       .  D
C481        C520   1.563       .  S
C482        C937   1.493       .  S
C482        C952   1.482       .  S
C483        C484   1.350       .  D
C483        C518   1.557       .  S
C484        C913   1.492       .  S
C484        C928   1.490       .  S
O485       Ni493   2.058       .  S
O485        C495   1.310   1_565  A
O486       Ni493   2.016       .  S
O486        C496   1.304       .  A
O487       Ni493   2.058       .  S
O487        C497   1.296   1_565  A
O488       Ni493   2.070       .  S
O488        C498   1.305       .  A
O489       Ni494   1.840       .  S
O489        C498   1.232       .  A
O490       Ni494   1.880   1_545  S
O490        C497   1.223       .  A
O491       Ni494   1.913       .  S
O491        C496   1.256       .  A
O492       Ni494   1.936       .  S
O492        C495   1.252   1_565  A
Ni493      Ni494   2.170       .  S
C496       C1460   1.542   1_455  S
C498       C1461   1.557   1_455  S
C499        C500   1.366       .  D
C499        C892   1.500       .  S
C499        C901   1.488       .  S
C500       C1456   1.542       .  S
C500        C532   1.555       .  S
C501        C502   1.352       .  D
C501       C1458   1.557       .  S
C501        C534   1.559       .  S
C502        C865   1.486       .  S
C502        C877   1.489       .  S
C503        C504   1.347       .  D
C503       C1479   1.548       .  S
C504        C841   1.476       .  S
C504        C853   1.493       .  S
C505        C506   1.360       .  D
C505       C1477   1.588       .  S
C506        C817   1.478       .  S
C506        C829   1.510       .  S
O507       Ni515   2.034       .  S
O507        C517   1.291       .  A
O508       Ni515   2.052       .  S
O508        C518   1.306       .  A
O509       Ni515   2.047       .  S
O509        C519   1.305       .  A
O510       Ni515   2.041       .  S
O510        C520   1.304       .  A
O511       Ni516   1.810       .  S
O511        C520   1.245       .  A
O512       Ni516   1.861       .  S
O512        C519   1.240       .  A
O513       Ni516   1.859       .  S
O513        C518   1.253       .  A
O514       Ni516   1.900       .  S
O514        C517   1.253       .  A
Ni515      Ni516   2.308       .  S
C517       C1465   1.588   1_455  S
C519       C1463   1.548   1_455  S
O522       Ni529   1.922       .  S
O522        C532   1.283       .  A
O524       Ni529   1.810       .  S
O524        C534   1.245       .  A
O525       Ni530   2.071       .  S
O525        C534   1.318       .  A
O526       Ni530   2.036       .  S
O526        C533   1.282   1_565  A
O527       Ni530   1.970       .  S
O527        C532   1.290       .  A
O528       Ni530   2.075       .  S
O528        C531   1.310   1_565  A
Ni529      Ni530   2.274       .  S
C535        C536   1.355       .  D
C535        C796   1.498       .  S
C535        C805   1.481       .  S
C536        C554   1.535       .  S
C536        C574   1.594       .  S
C537        C538   1.354       .  D
C537        C587   1.569       .  S
C538        C769   1.496       .  S
C538        C784   1.486       .  S
C539        C540   1.343       .  D
C539        C745   1.472       .  S
C539        C760   1.484       .  S
C540        C586   1.567       .  S
C541        C542   1.348       .  D
C541        C585   1.564       .  S
C542        C721   1.485       .  S
C542        C733   1.483       .  S
O543       Ni551   2.076       .  S
O543        C553   1.297       .  A
O544       Ni551   2.077       .  S
O544        C554   1.318       .  A
O545       Ni551   2.095       .  S
O545        C555   1.311       .  A
O546       Ni551   1.994       .  S
O546        C556   1.289       .  A
O547       Ni552   1.991       .  S
O547        C556   1.298       .  A
O548       Ni552   1.956       .  S
O548        C555   1.231       .  A
O549       Ni552   1.706       .  S
O549        C554   1.216       .  A
O550       Ni552   1.885       .  S
O550        C553   1.209       .  A
Ni551      Ni552   2.172       .  S
C556        C558   1.598       .  S
C557        C558   1.355       .  D
C557        C700   1.478       .  S
C557        C709   1.497       .  S
C558        C572   1.526       .  S
C559        C560   1.350       .  D
C559        C588   1.565       .  S
C560        C673   1.491       .  S
C560        C685   1.478       .  S
O561       Ni569   2.078       .  S
O561        C571   1.301       .  A
O562       Ni569   2.074       .  S
O562       C1532   1.314       .  A
O563       Ni569   2.074       .  S
O563        C573   1.308       .  A
O564       Ni569   2.004       .  S
O564       C1534   1.293       .  A
O565      Ni1530   1.974   1_455  S
O565        C574   1.292       .  A
O566       Ni570   1.958       .  S
O566        C573   1.239       .  A
O567      Ni1530   1.724   1_455  S
O567        C572   1.209       .  A
O568       Ni570   1.873       .  S
O568        C571   1.206       .  A
Ni569      Ni570   2.156       .  S
Ni570      O1525   1.974       .  S
Ni570      O1527   1.724       .  S
C572       O1522   1.314       .  A
C574       O1524   1.293       .  A
O575      Ni1543   1.878       .  S
O575        C585   1.255       .  A
O576       Ni583   1.880       .  S
O576        C586   1.257       .  A
O577      Ni1543   1.762       .  S
O577        C587   1.231       .  A
O578       Ni583   1.756       .  S
O578        C588   1.233       .  A
O579       Ni584   2.052       .  S
O579        C588   1.301       .  A
O580       Ni584   2.052       .  S
O580       C1547   1.300       .  A
O581       Ni584   2.048       .  S
O581        C586   1.307       .  A
O582       Ni584   2.046       .  S
O582       C1545   1.304       .  A
Ni583      O1535   1.878       .  S
Ni583      O1537   1.762       .  S
Ni583      Ni584   2.300       .  S
C585       O1542   1.304       .  A
C587       O1540   1.300       .  A
O589       Ni597   1.924       .  S
O589        C599   1.284       .  A
O590       Ni597   1.929   1_556  S
O590        C600   1.283       .  A
O591       Ni597   1.910       .  S
O591        C601   1.277   1_554  A
O592       Ni597   1.898       .  S
O592        C602   1.279       .  A
O593       Ni598   1.930       .  S
O593        C602   1.282       .  A
O594       Ni598   1.918       .  S
O594        C601   1.282   1_554  A
O595       Ni598   1.918       .  S
O595        C600   1.282   1_554  A
O596       Ni598   1.922       .  S
O596        C599   1.280       .  A
Ni597      Ni598   2.391       .  S
C599        C889   1.481       .  S
C600        C793   1.482       .  S
C601        C748   1.462       .  S
C602        C916   1.471       .  S
O603       Ni611   1.922       .  S
O603       C1573   1.283       .  A
O604      Ni1571   1.919   1_456  S
O604        C614   1.280       .  A
O605      Ni1571   1.918   1_556  S
O605        C615   1.280   1_655  A
O606       Ni611   1.910       .  S
O606       C1576   1.280       .  A
O607       Ni612   1.918       .  S
O607        C616   1.279       .  A
O608       Ni612   1.904       .  S
O608        C615   1.279   1_554  A
O609       Ni612   1.923       .  S
O609        C614   1.284   1_554  A
O610       Ni612   1.920       .  S
O610        C613   1.280       .  A
Ni611      O1564   1.919   1_554  S
Ni611      O1565   1.918   1_554  S
Ni611     Ni1572   2.393       .  S
Ni612     Ni1571   2.393   1_455  S
C613       O1563   1.283   1_455  A
C613       C1816   1.477       .  S
C614        C772   1.477       .  S
C615        C808   1.460       .  S
C616       O1566   1.280   1_455  A
C616       C1864   1.463       .  S
O617        C627   1.277       .  A
O618       Ni625   1.902       .  S
O618        C628   1.279   1_554  A
O619       Ni625   1.924       .  S
O619        C629   1.284   1_554  A
O620        C630   1.281       .  A
O621       Ni626   1.913       .  S
O621        C630   1.281       .  A
O622       Ni626   1.910       .  S
O623       Ni626   1.916       .  S
O624       Ni626   1.911       .  S
O624        C627   1.281       .  A
C627        C844   1.458       .  S
C628        C781   1.460       .  S
C629        C757   1.470       .  S
C630        C925   1.471       .  S
O631       Ni639   1.916       .  S
O632       Ni639   1.923       .  S
O632        C642   1.283       .  A
O633       Ni639   1.908       .  S
O633        C643   1.281       .  A
O634       Ni639   1.916       .  S
O635       Ni640   1.907       .  S
O635        C644   1.279   1_565  A
O636        C643   1.278       .  A
O637        C642   1.282       .  A
O638       Ni640   1.924       .  S
O638        C641   1.283       .  A
C641        C724   1.469       .  S
C642        C832   1.481       .  S
C643        C949   1.461       .  S
C644        C688   1.462   1_545  S
O645       Ni653   1.917       .  S
O645        C655   1.278       .  A
O646       Ni653   1.908       .  S
O646        C656   1.280       .  A
O647       Ni653   1.925       .  S
O647        C657   1.284       .  A
O648       Ni653   1.926       .  S
O648        C658   1.282       .  A
O649       Ni654   1.915       .  S
O649       C1618   1.281       .  A
O650      Ni1614   1.922   1_455  S
O650        C657   1.281       .  A
O651      Ni1614   1.924   1_455  S
O651        C656   1.281       .  A
O652       Ni654   1.911       .  S
O652       C1615   1.281       .  A
Ni653     Ni1614   2.391   1_455  S
Ni654      O1610   1.922       .  S
Ni654      O1611   1.924       .  S
Ni654     Ni1613   2.391       .  S
C655       O1612   1.281   1_455  A
C655       C1780   1.463       .  S
C656        C736   1.469       .  S
C657        C712   1.482       .  S
C658       O1609   1.281   1_455  A
C658       C1840   1.479       .  S
O659       Ni667   1.914       .  S
O659        C669   1.281       .  A
O660       Ni667   1.927       .  S
O660        C670   1.282       .  A
O661       Ni667   1.913       .  S
O661        C671   1.279       .  A
O662       Ni667   1.916       .  S
O662        C672   1.281       .  A
O663       Ni668   1.922       .  S
O663        C672   1.281       .  A
O664       Ni668   1.926       .  S
O664        C671   1.284       .  A
O665       Ni668   1.901       .  S
O665        C670   1.278       .  A
O666       Ni668   1.910       .  S
O666        C669   1.277       .  A
Ni667      Ni668   2.393       .  S
C669        C697   1.460       .  S
C670        C868   1.465       .  S
C671        C940   1.475       .  S
C672        C676   1.474       .  S
C673        C674   1.406       .  A
C673        C678   1.412       .  A
C674        C675   1.399       .  A
C674        H679   1.084       .  S
C675        C676   1.405       .  A
C675        O680   1.372       .  S
C676        C677   1.402       .  A
C677        C678   1.404       .  A
C677        H681   1.083       .  S
C678        O682   1.372       .  S
O680        H684   0.992       .  S
O682        H683   0.991       .  S
C685        C686   1.397       .  A
C685        C690   1.408       .  A
C686        C687   1.388       .  A
C686        H691   1.084       .  S
C687        C688   1.401       .  A
C687        O692   1.367       .  S
C688        C689   1.402       .  A
C689        C690   1.406       .  A
C690        O694   1.372       .  S
O692        H696   0.992       .  S
C697        C698   1.397       .  A
C697        C702   1.405       .  A
C698        C699   1.395       .  A
C698        H703   1.083       .  S
C699        C700   1.408       .  A
C699        O704   1.372       .  S
C700        C701   1.404       .  A
C701        C702   1.401       .  A
C701        H705   1.083       .  S
C702        O706   1.371       .  S
O704        H708   0.992       .  S
O706        H707   0.992       .  S
C709        C710   1.407       .  A
C709        C714   1.411       .  A
C710        C711   1.399       .  A
C710        H715   1.083       .  S
C711        C712   1.406       .  A
C711        O716   1.371       .  S
C712        C713   1.407       .  A
C713        C714   1.407       .  A
C713        H717   1.083   1_455  S
C714        O718   1.373       .  S
O716        H720   0.992       .  S
O718        H719   0.991       .  S
C721        C722   1.407       .  A
C721        C726   1.407       .  A
C722        C723   1.407       .  A
C722        H727   1.083       .  S
C723        C724   1.407       .  A
C723        O728   1.371       .  S
C724        C725   1.399       .  A
C725        C726   1.394       .  A
C726        O730   1.372       .  S
O728        H732   0.992       .  S
C733        C734   1.404       .  A
C733        C738   1.408       .  A
C734        C735   1.394       .  A
C734        H739   1.083       .  S
C735        C736   1.403       .  A
C735        O740   1.373       .  S
C736        C737   1.404       .  A
C737        C738   1.406       .  A
C737        H741   1.084       .  S
C738        O742   1.370       .  S
O740        H744   0.992       .  S
O742       H1703   0.991   1_455  S
H743       O1702   0.991       .  S
C745        C746   1.398       .  A
C745        C750   1.408       .  A
C746        C747   1.396       .  A
C746        H751   1.083       .  S
C747        C748   1.404       .  A
C747        O752   1.371   1_556  S
C748        C749   1.400       .  A
C749        C750   1.400       .  A
C749        H753   1.084       .  S
C750        O754   1.372       .  S
O752        H756   0.991       .  S
O754        H755   0.991       .  S
C757        C758   1.403   1_565  A
C757        C762   1.405       .  A
C758        C759   1.401       .  A
C758        H763   1.084       .  S
C759        C760   1.409   1_545  A
C759        O764   1.372       .  S
C760        C761   1.405       .  A
C761        C762   1.398       .  A
C761        H765   1.082       .  S
C762        O766   1.371       .  S
O764        H768   0.992       .  S
O766        H767   0.992       .  S
C769        C770   1.408       .  A
C769        C774   1.414       .  A
C770        C771   1.397       .  A
C770        H775   1.084       .  S
C771        C772   1.404       .  A
C771        O776   1.372       .  S
C772        C773   1.404       .  A
C773        C774   1.407       .  A
C773        H777   1.084   1_455  S
C774        O778   1.373       .  S
O776        H780   0.992       .  S
O778        H779   0.991       .  S
C781        C782   1.395       .  A
C782        C783   1.388       .  A
C782        H787   1.084   1_556  S
C783        C784   1.409       .  A
C783        O788   1.372       .  S
C784        C785   1.407       .  A
C785        H789   1.083       .  S
C786        O790   1.371       .  S
O788        H792   0.992   1_556  S
O790        H791   0.992       .  S
C793        C794   1.402       .  A
C793        C798   1.410       .  A
C794        C795   1.398       .  A
C794        H799   1.084       .  S
C795        C796   1.412       .  A
C795        O800   1.372       .  S
C796        C797   1.407       .  A
C797        C798   1.406       .  A
C797        H801   1.083       .  S
C798        O802   1.371       .  S
O800        H804   0.992       .  S
O802        H803   0.992       .  S
C805        C806   1.405       .  A
C805        C810   1.408       .  A
C806        C807   1.402       .  A
C806        H811   1.083       .  S
C807        C808   1.405       .  A
C807        O812   1.371       .  S
C808        C809   1.398       .  A
C809        C810   1.391       .  A
C809        H813   1.083   1_556  S
C810        O814   1.372       .  S
O812       H1776   0.992   1_455  S
O814        H815   0.991       .  S
H816       O1772   0.992       .  S
C817       C1778   1.402       .  A
C817        C822   1.407       .  A
C818       C1777   1.402       .  A
C818        C819   1.391   1_655  A
C818        H823   1.084       .  S
C819       C1780   1.402       .  A
C819        O824   1.372       .  S
C820       C1615   1.463       .  S
C820       C1779   1.402       .  A
C820        C821   1.404       .  A
C821        C822   1.408       .  A
C821        H825   1.083       .  S
C822        O826   1.374       .  S
O824        H828   0.992       .  S
O826        H827   0.992       .  S
C829        C830   1.409       .  A
C829        C834   1.413       .  A
C830        C831   1.405       .  A
C830        H835   1.080       .  S
C831        C832   1.406       .  A
C832        C833   1.401       .  A
C833        C834   1.404       .  A
C833        H837   1.084       .  S
C834        O838   1.371       .  S
O836        H840   0.992       .  S
O838        H839   0.992       .  S
C841        C842   1.404       .  A
C841        C846   1.407       .  A
C842        C843   1.403       .  A
C842        H847   1.083       .  S
C843        C844   1.406       .  A
C843        O848   1.371       .  S
C844        C845   1.397       .  A
C845        C846   1.389       .  A
C845        H849   1.084       .  S
C846        O850   1.372       .  S
O848        H852   0.992       .  S
O850        H851   0.992       .  S
C853       C1814   1.405       .  A
C853        C858   1.413       .  A
C854       C1813   1.405   1_455  A
C854        C855   1.405       .  A
C854        H859   1.083       .  S
C855       C1816   1.411       .  A
C855        O860   1.371       .  S
C856       C1573   1.477       .  S
C856       C1815   1.411       .  A
C856        C857   1.399       .  A
C857        C858   1.396       .  A
C857        H861   1.084       .  S
C858        O862   1.371       .  S
O860        H864   0.992       .  S
O862        H863   0.992       .  S
C865        C866   1.403       .  A
C865        C870   1.409       .  A
C866        C867   1.394       .  A
C866        H871   1.083       .  S
C867        C868   1.404       .  A
C867        O872   1.372       .  S
C868        C869   1.402       .  A
C869        C870   1.405       .  A
C869        H873   1.084       .  S
C870        O874   1.373       .  S
O872        H876   0.992       .  S
O874        H875   0.992       .  S
C877        C878   1.403       .  A
C877       C1842   1.412       .  A
C878        C879   1.399       .  A
C878        H883   1.084       .  S
C879        C880   1.408       .  A
C879        O884   1.372       .  S
C880       C1618   1.479       .  S
C880       C1841   1.404       .  A
C881       C1840   1.404       .  A
C881        C882   1.407       .  A
C881        H885   1.084       .  S
C882       C1837   1.412   1_455  A
C882        O886   1.373       .  S
O884        H888   0.992       .  S
O886        H887   0.992       .  S
C889        C890   1.399       .  A
C889        C894   1.410       .  A
C890        C891   1.400       .  A
C890        H895   1.084       .  S
C891        C892   1.414       .  A
C891        O896   1.373       .  S
C892        C893   1.407       .  A
C893        C894   1.406       .  A
C893        H897   1.083       .  S
C894        O898   1.370       .  S
O896        H900   0.992       .  S
O898        H899   0.992       .  S
C901       C1862   1.407       .  A
C901        C906   1.408       .  A
C902       C1861   1.407       .  A
C902        C903   1.401   1_655  A
C902        H907   1.083       .  S
C903       C1864   1.404       .  A
C903        O908   1.371       .  S
C904       C1576   1.463       .  S
C904       C1863   1.404       .  A
C904        C905   1.399       .  A
C905        C906   1.395       .  A
C905        H909   1.084       .  S
C906        O910   1.373       .  S
O908        H912   0.992       .  S
O910        H911   0.992       .  S
C913        C914   1.409       .  A
C913        C918   1.410       .  A
C914        C915   1.407       .  A
C914        H919   1.082       .  S
C915        C916   1.407       .  A
C915        O920   1.371       .  S
C916        C917   1.398       .  A
C917        C918   1.392       .  A
C917        H921   1.084       .  S
C918        O922   1.373       .  S
O920        H924   0.992       .  S
O922        H923   0.993       .  S
C925        C926   1.405       .  A
C925        C930   1.404       .  A
C926        C927   1.410       .  A
C926        H931   1.083       .  S
C927        C928   1.412       .  A
C927        O932   1.372       .  S
C928        C929   1.401       .  A
C929        C930   1.394       .  A
C929        H933   1.084       .  S
C930        O934   1.374       .  S
O932        H936   0.991       .  S
O934        H935   0.992       .  S
C937        C938   1.405       .  A
C937        C942   1.413       .  A
C938        C939   1.403       .  A
C938        H943   1.083       .  S
C939        C940   1.410       .  A
C939        O944   1.371       .  S
C940        C941   1.399       .  A
C941        C942   1.397       .  A
C941        H945   1.084       .  S
C942        O946   1.372       .  S
O944        H948   0.991       .  S
O946        H947   0.992       .  S
C949        C950   1.397       .  A
C949        C954   1.405       .  A
C950        C951   1.391       .  A
C950        H955   1.084       .  S
C951        C952   1.408       .  A
C951        O956   1.373       .  S
C952        C953   1.406       .  A
C953        C954   1.402       .  A
C953        H957   1.083       .  S
O956        H960   0.992       .  S
O958        H959   0.992   1_545  S
C961        C962   1.355       .  D
C961       C1455   1.582       .  S
C961       C1000   1.563       .  S
C962       C1417   1.493       .  S
C962       C1432   1.482       .  S
C963        C964   1.350       .  D
C963       C1457   1.536       .  S
C963        C998   1.557       .  S
C964       C1393   1.492       .  S
C964       C1408   1.490       .  S
O965       Ni973   2.058       .  S
O965        C975   1.310       .  A
O966       Ni973   2.016       .  S
O966        C976   1.304       .  A
O967       Ni973   2.058       .  S
O967        C977   1.296       .  A
O968       Ni973   2.070       .  S
O968        C978   1.305       .  A
O969       Ni974   1.840       .  S
O969        C978   1.232       .  A
O970       Ni974   1.880       .  S
O970        C977   1.223       .  A
O971       Ni974   1.913       .  S
O971        C976   1.256       .  A
O972       Ni974   1.936       .  S
O972        C975   1.252       .  A
Ni973      Ni974   2.170       .  S
C975       C1441   1.582       .  S
C977       C1443   1.536       .  S
C979        C980   1.366       .  D
C979       C1372   1.500       .  S
C979       C1381   1.488       .  S
C980       C1012   1.555       .  S
C981        C982   1.352       .  D
C981       C1014   1.559       .  S
C982       C1345   1.486       .  S
C982       C1357   1.489       .  S
C983        C984   1.347       .  D
C983       C1493   1.551       .  S
C984       C1321   1.476       .  S
C984       C1333   1.493       .  S
C985        C986   1.360       .  D
C985       C1491   1.557       .  S
C986       C1297   1.478       .  S
C986       C1309   1.510       .  S
O987       Ni995   2.034       .  S
O987        C997   1.291       .  A
O988       Ni995   2.052       .  S
O988        C998   1.306       .  A
O989       Ni995   2.047       .  S
O989        C999   1.305       .  A
O990       Ni995   2.041       .  S
O990       C1000   1.304       .  A
O991       Ni996   1.810       .  S
O991       C1000   1.245       .  A
O992       Ni996   1.861       .  S
O992        C999   1.240       .  A
O993       Ni996   1.859       .  S
O993        C998   1.253       .  A
O994       Ni996   1.900       .  S
O994        C997   1.253       .  A
Ni995      Ni996   2.308       .  S
O1001     Ni1489   1.875   1_545  S
O1001      C1491   1.216       .  A
O1002     Ni1009   1.922       .  S
O1002      C1012   1.283       .  A
O1003     Ni1489   1.898   1_545  S
O1003      C1493   1.224       .  A
O1004     Ni1009   1.810       .  S
O1004      C1014   1.245       .  A
O1005     Ni1010   2.071       .  S
O1005      C1014   1.318       .  A
O1006     Ni1010   2.036       .  S
O1006      C1013   1.282       .  A
O1007     Ni1010   1.970       .  S
O1007      C1012   1.290       .  A
O1008     Ni1010   2.075       .  S
O1008      C1011   1.310       .  A
Ni1009     O1481   1.875       .  S
Ni1009     O1483   1.898       .  S
Ni1009    Ni1010   2.274       .  S
C1011      C1465   1.557       .  S
C1011      O1481   1.216       .  A
C1013      C1463   1.551       .  S
C1013      O1483   1.224       .  A
C1015      C1016   1.355       .  D
C1015      C1276   1.498       .  S
C1015      C1285   1.481       .  S
C1016      C1034   1.535       .  S
C1016      C1054   1.594       .  S
C1017      C1018   1.354       .  D
C1017      C1515   1.589       .  S
C1017      C1067   1.569       .  S
C1018      C1249   1.496       .  S
C1018      C1264   1.486       .  S
C1019      C1020   1.343       .  D
C1019      C1225   1.472       .  S
C1019      C1240   1.484       .  S
C1020      C1531   1.531       .  S
C1020      C1066   1.567       .  S
C1021      C1022   1.348       .  D
C1021      C1513   1.536       .  S
C1021      C1065   1.564       .  S
C1022      C1201   1.485       .  S
C1022      C1213   1.483       .  S
O1023     Ni1031   2.076       .  S
O1023      C1033   1.297       .  A
O1024     Ni1031   2.077       .  S
O1024      C1034   1.318       .  A
O1025     Ni1031   2.095       .  S
O1025      C1035   1.311       .  A
O1026     Ni1031   1.994       .  S
O1026      C1036   1.289       .  A
O1027     Ni1032   1.991       .  S
O1027      C1036   1.298       .  A
O1028     Ni1032   1.956       .  S
O1028      C1035   1.231       .  A
O1029     Ni1032   1.706       .  S
O1029      C1034   1.216       .  A
O1030     Ni1032   1.885   1_565  S
O1030      C1033   1.209   1_565  A
Ni1031    Ni1032   2.172       .  S
C1033      C1501   1.536   1_545  S
C1035      C1497   1.589   1_545  S
C1036      C1038   1.598       .  S
C1037      C1038   1.355       .  D
C1037      C1180   1.478       .  S
C1037      C1189   1.497       .  S
C1038      C1052   1.526       .  S
C1039      C1040   1.350       .  D
C1039      C1533   1.582       .  S
C1039      C1068   1.565       .  S
C1040      C1153   1.491       .  S
C1040      C1165   1.478       .  S
O1041     Ni1049   2.078       .  S
O1041      C1051   1.301       .  A
O1042     Ni1049   2.074   1_455  S
O1043     Ni1049   2.074       .  S
O1043      C1053   1.308       .  A
O1044     Ni1049   2.004   1_455  S
O1045      C1054   1.292       .  A
O1046     Ni1050   1.959       .  S
O1046      C1053   1.239       .  A
O1047      C1052   1.209       .  A
O1048     Ni1050   1.873   1_565  S
O1048      C1051   1.206   1_565  A
Ni1049    Ni1050   2.156       .  S
C1051      C1500   1.531   1_545  S
C1053      C1519   1.582   1_545  S
O1055      C1065   1.255       .  A
O1056     Ni1063   1.880   1_655  S
O1056      C1066   1.257       .  A
O1057      C1067   1.231       .  A
O1058     Ni1063   1.756   1_655  S
O1058      C1068   1.233       .  A
O1059     Ni1064   2.052       .  S
O1059      C1068   1.301       .  A
O1060     Ni1064   2.052   1_455  S
O1061     Ni1064   2.048       .  S
O1061      C1066   1.307       .  A
O1062     Ni1064   2.046   1_455  S
Ni1063    Ni1064   2.300   1_455  S
O1069     Ni1077   1.924       .  S
O1069      C1079   1.284       .  A
O1070     Ni1077   1.929   1_556  S
O1070      C1080   1.283       .  A
O1071     Ni1077   1.910       .  S
O1071      C1081   1.277   1_554  A
O1072     Ni1077   1.898       .  S
O1072      C1082   1.279       .  A
O1073     Ni1078   1.930       .  S
O1073      C1082   1.282       .  A
O1074     Ni1078   1.918       .  S
O1074      C1081   1.282   1_554  A
O1075     Ni1078   1.918       .  S
O1075      C1080   1.282   1_554  A
O1076     Ni1078   1.922       .  S
O1076      C1079   1.280       .  A
Ni1077    Ni1078   2.391       .  S
C1079      C1369   1.481       .  S
C1080      C1273   1.482       .  S
C1081      C1228   1.462       .  S
C1082      C1396   1.471       .  S
O1083     Ni1091   1.922       .  S
O1084      C1094   1.280       .  A
O1085      C1095   1.280       .  A
O1086     Ni1091   1.910       .  S
O1087     Ni1092   1.918       .  S
O1087      C1096   1.279       .  A
O1088     Ni1092   1.904       .  S
O1088      C1095   1.279   1_554  A
O1089     Ni1092   1.923       .  S
O1089      C1094   1.284   1_554  A
O1090     Ni1092   1.920       .  S
O1090      C1093   1.280       .  A
C1094      C1252   1.477       .  S
C1095      C1288   1.460       .  S
O1097     Ni1585   1.910       .  S
O1097      C1107   1.277   1_565  A
O1098     Ni1105   1.902       .  S
O1098      C1108   1.279   1_554  A
O1099     Ni1105   1.924       .  S
O1099      C1109   1.284   1_554  A
O1100     Ni1585   1.926       .  S
O1100      C1110   1.281   1_565  A
O1101     Ni1106   1.913       .  S
O1101      C1110   1.281       .  A
O1102     Ni1106   1.910       .  S
O1102      C1589   1.278   1_544  A
O1103     Ni1106   1.916       .  S
O1103      C1588   1.279   1_544  A
O1104     Ni1106   1.911       .  S
O1104      C1107   1.281       .  A
Ni1105     O1577   1.910       .  S
Ni1105     O1580   1.926       .  S
Ni1105    Ni1586   2.394       .  S
Ni1106    Ni1585   2.394   1_545  S
C1107      C1324   1.458       .  S
C1108      O1583   1.279   1_556  A
C1108      C1261   1.460       .  S
C1109      O1582   1.278   1_556  A
C1109      C1237   1.470       .  S
C1110      C1405   1.471       .  S
O1111     Ni1119   1.916       .  S
O1111      C1601   1.279   1_545  A
O1112     Ni1119   1.923       .  S
O1112      C1122   1.283       .  A
O1113     Ni1119   1.908       .  S
O1113      C1123   1.281       .  A
O1114     Ni1119   1.916       .  S
O1114      C1604   1.279       .  A
O1115     Ni1120   1.907       .  S
O1115      C1124   1.279       .  A
O1116     Ni1600   1.911       .  S
O1116      C1123   1.278   1_565  A
O1117     Ni1600   1.922       .  S
O1117      C1122   1.282   1_565  A
O1118     Ni1120   1.924       .  S
O1118      C1121   1.283       .  A
Ni1119    Ni1600   2.393   1_545  S
Ni1120     O1596   1.911       .  S
Ni1120     O1597   1.922       .  S
Ni1120    Ni1599   2.393       .  S
C1121      O1591   1.279       .  A
C1121      C1204   1.469       .  S
C1122      C1312   1.481       .  S
C1123      C1429   1.461       .  S
C1124      O1594   1.279       .  A
C1124      C1168   1.462       .  S
O1125     Ni1133   1.917       .  S
O1125      C1135   1.278       .  A
O1126     Ni1133   1.908       .  S
O1126      C1136   1.280       .  A
O1127     Ni1133   1.925       .  S
O1127      C1137   1.284       .  A
O1128     Ni1133   1.926       .  S
O1128      C1138   1.282       .  A
O1129     Ni1134   1.914       .  S
O1130      C1137   1.281       .  A
O1131      C1136   1.281       .  A
O1132     Ni1134   1.911       .  S
C1136      C1216   1.469       .  S
C1137      C1192   1.482       .  S
O1139     Ni1147   1.914       .  S
O1139      C1149   1.281       .  A
O1140     Ni1147   1.927       .  S
O1140      C1150   1.282       .  A
O1141     Ni1147   1.913       .  S
O1141      C1151   1.279       .  A
O1142     Ni1147   1.916       .  S
O1142      C1152   1.281       .  A
O1143     Ni1148   1.922       .  S
O1143      C1152   1.281       .  A
O1144     Ni1148   1.925       .  S
O1144      C1151   1.284       .  A
O1145     Ni1148   1.901       .  S
O1145      C1150   1.278       .  A
O1146     Ni1148   1.910       .  S
O1146      C1149   1.277       .  A
Ni1147    Ni1148   2.393       .  S
C1149      C1177   1.460       .  S
C1150      C1348   1.465       .  S
C1151      C1420   1.475       .  S
C1152      C1156   1.474       .  S
C1153      C1154   1.406       .  A
C1153      C1158   1.412       .  A
C1154      C1155   1.399       .  A
C1154      H1159   1.084       .  S
C1155      C1156   1.405       .  A
C1155      O1160   1.372       .  S
C1156      C1157   1.402       .  A
C1157      C1158   1.404       .  A
C1157      H1161   1.083       .  S
C1158      O1162   1.372       .  S
O1160      H1164   0.992       .  S
O1162      H1163   0.991       .  S
C1165      C1166   1.397       .  A
C1165      C1170   1.408       .  A
C1166      C1167   1.388       .  A
C1166      H1171   1.084       .  S
C1167      C1168   1.401       .  A
C1167      O1172   1.367       .  S
C1168      C1169   1.402       .  A
C1169      C1170   1.406       .  A
C1169      H1653   1.083       .  S
C1170      O1174   1.372       .  S
O1172      H1176   0.992       .  S
H1173      C1649   1.083   1_545  S
O1174      H1655   0.992       .  S
H1175      O1654   0.992   1_545  S
C1177      C1178   1.397       .  A
C1177      C1182   1.405       .  A
C1178      C1179   1.395       .  A
C1178      H1183   1.083       .  S
C1179      C1180   1.408       .  A
C1179      O1184   1.372       .  S
C1180      C1181   1.404       .  A
C1181      C1182   1.401       .  A
C1181      H1185   1.083       .  S
C1182      O1186   1.371       .  S
O1184      H1188   0.992       .  S
O1186      H1187   0.992       .  S
C1189      C1190   1.407       .  A
C1189      C1194   1.411       .  A
C1190      C1191   1.399       .  A
C1190      H1195   1.083       .  S
C1191      C1192   1.406       .  A
C1191      O1196   1.371       .  S
C1192      C1193   1.407       .  A
C1193      C1194   1.407       .  A
C1193      H1197   1.083       .  S
C1194      O1198   1.373       .  S
O1196      H1200   0.992       .  S
O1198      H1199   0.991       .  S
C1201      C1202   1.407       .  A
C1201      C1206   1.407       .  A
C1202      C1203   1.407       .  A
C1202      H1207   1.083       .  S
C1203      C1204   1.407       .  A
C1203      O1208   1.371       .  S
C1204      C1205   1.399       .  A
C1205      C1206   1.394       .  A
C1205      H1689   1.083       .  S
C1206      O1210   1.372       .  S
O1208      H1212   0.992       .  S
H1209      C1685   1.083       .  S
O1210      H1691   0.992       .  S
H1211      O1690   0.992   1_545  S
C1213      C1214   1.404       .  A
C1213      C1218   1.408       .  A
C1214      C1215   1.394       .  A
C1214      H1219   1.083       .  S
C1215      C1216   1.403       .  A
C1215      O1220   1.373       .  S
C1216      C1217   1.404       .  A
C1217      C1218   1.406       .  A
C1217      H1221   1.084       .  S
C1218      O1222   1.370       .  S
O1220      H1224   0.992       .  S
C1225      C1226   1.398       .  A
C1225      C1230   1.408       .  A
C1226      C1227   1.396       .  A
C1226      H1231   1.083       .  S
C1227      C1228   1.404       .  A
C1227      O1232   1.371   1_556  S
C1228      C1229   1.400       .  A
C1229      C1230   1.400       .  A
C1229      H1233   1.084       .  S
C1230      O1234   1.372       .  S
O1232      H1236   0.991       .  S
O1234      H1235   0.991       .  S
C1237      C1238   1.403       .  A
C1237      C1242   1.405       .  A
C1238      C1239   1.401       .  A
C1238      H1243   1.084       .  S
C1239      C1240   1.409       .  A
C1239      O1244   1.372       .  S
C1240      C1241   1.405       .  A
C1241      C1242   1.398       .  A
C1241      H1245   1.082       .  S
C1242      O1246   1.371       .  S
O1244      H1248   0.992       .  S
O1246      H1247   0.992       .  S
C1249      C1250   1.408       .  A
C1249      C1254   1.414       .  A
C1250      C1251   1.397       .  A
C1250      H1255   1.084       .  S
C1251      C1252   1.404       .  A
C1251      O1256   1.372       .  S
C1252      C1253   1.404       .  A
C1253      C1254   1.407       .  A
C1253      H1257   1.084       .  S
C1254      O1258   1.373       .  S
O1256      H1260   0.992       .  S
O1258      H1259   0.991       .  S
C1261      C1262   1.395       .  A
C1261      C1746   1.405       .  A
C1262      C1263   1.388       .  A
C1262      H1267   1.084   1_556  S
C1263      C1264   1.409       .  A
C1263      O1268   1.372       .  S
C1264      C1265   1.407       .  A
C1265      C1746   1.404       .  A
C1265      H1269   1.083       .  S
C1266      C1741   1.405       .  A
C1266      C1745   1.404       .  A
C1266      O1270   1.371   1_565  S
O1268      H1272   0.992   1_556  S
O1270      H1271   0.992       .  S
C1273      C1274   1.402       .  A
C1273      C1278   1.410       .  A
C1274      C1275   1.398       .  A
C1274      H1279   1.084       .  S
C1275      C1276   1.412       .  A
C1275      O1280   1.372       .  S
C1276      C1277   1.407       .  A
C1277      C1278   1.406       .  A
C1277      H1281   1.083       .  S
C1278      O1282   1.371       .  S
O1280      H1284   0.992       .  S
O1282      H1283   0.992       .  S
C1285      C1286   1.405       .  A
C1285      C1290   1.408       .  A
C1286      C1287   1.402       .  A
C1286      H1291   1.083       .  S
C1287      C1288   1.405       .  A
C1287      O1292   1.371       .  S
C1288      C1289   1.398       .  A
C1289      C1290   1.391       .  A
C1289      H1293   1.083   1_556  S
C1290      O1294   1.372       .  S
O1294      H1295   0.991       .  S
C1297      C1302   1.407       .  A
C1298      C1299   1.391       .  A
C1298      H1303   1.084       .  S
C1299      O1304   1.372       .  S
C1300      C1301   1.404       .  A
C1301      C1302   1.408   1_455  A
C1301      H1305   1.083       .  S
C1302      O1306   1.374       .  S
O1304      H1308   0.992       .  S
O1306      H1307   0.992       .  S
C1309      C1310   1.409       .  A
C1309      C1314   1.413       .  A
C1310      C1311   1.405       .  A
C1310      H1315   1.080       .  S
C1311      C1312   1.406       .  A
C1311      O1796   1.376   1_545  S
C1312      C1313   1.401       .  A
C1313      C1314   1.404       .  A
C1313      H1317   1.084       .  S
C1314      O1318   1.371       .  S
O1316      C1791   1.376       .  S
O1316      H1320   0.992       .  S
O1318      H1319   0.992       .  S
C1321      C1322   1.404       .  A
C1321      C1326   1.407       .  A
C1322      C1323   1.403       .  A
C1322      H1327   1.083       .  S
C1323      C1324   1.406       .  A
C1323      O1328   1.371       .  S
C1324      C1325   1.397       .  A
C1325      C1326   1.389       .  A
C1325      H1329   1.084       .  S
C1326      O1330   1.372       .  S
O1328      H1332   0.992       .  S
O1330      H1331   0.992       .  S
C1333      C1338   1.413       .  A
C1334      C1335   1.405       .  A
C1334      H1339   1.083       .  S
C1335      O1340   1.371       .  S
C1336      C1337   1.399   1_455  A
C1337      C1338   1.396       .  A
C1337      H1341   1.084       .  S
C1338      O1342   1.371       .  S
O1340      H1344   0.992       .  S
O1342      H1343   0.992       .  S
C1345      C1346   1.403       .  A
C1345      C1350   1.409       .  A
C1346      C1347   1.394       .  A
C1346      H1351   1.083       .  S
C1347      C1348   1.404       .  A
C1347      O1352   1.372       .  S
C1348      C1349   1.402       .  A
C1349      C1350   1.405       .  A
C1349      H1353   1.084       .  S
C1350      O1354   1.373       .  S
O1352      H1356   0.992       .  S
O1354      H1355   0.992       .  S
C1357      C1358   1.403       .  A
C1358      C1359   1.399       .  A
C1358      H1363   1.084       .  S
C1359      C1360   1.408   1_655  A
C1359      O1364   1.372       .  S
C1361      C1362   1.407       .  A
C1361      H1365   1.084       .  S
C1362      O1366   1.373       .  S
O1364      H1368   0.992       .  S
O1366      H1367   0.992       .  S
C1369      C1370   1.399       .  A
C1369      C1374   1.410       .  A
C1370      C1371   1.400       .  A
C1370      H1375   1.084       .  S
C1371      C1372   1.414       .  A
C1371      O1376   1.373       .  S
C1372      C1373   1.407       .  A
C1373      C1374   1.406       .  A
C1373      H1377   1.083       .  S
C1374      O1378   1.370       .  S
O1376      H1380   0.992       .  S
O1378      H1379   0.992       .  S
C1381      C1386   1.408       .  A
C1382      C1383   1.401       .  A
C1382      H1387   1.083       .  S
C1383      O1388   1.371       .  S
C1384      C1385   1.399   1_455  A
C1385      C1386   1.395       .  A
C1385      H1389   1.084       .  S
C1386      O1390   1.373       .  S
O1388      H1392   0.992       .  S
O1390      H1391   0.992       .  S
C1393      C1394   1.409       .  A
C1393      C1398   1.410       .  A
C1394      C1395   1.407       .  A
C1394      H1399   1.082       .  S
C1395      C1396   1.407       .  A
C1395      O1400   1.371       .  S
C1396      C1397   1.398       .  A
C1397      C1398   1.392       .  A
C1397      H1401   1.084       .  S
C1398      O1402   1.373       .  S
O1400      H1404   0.992       .  S
O1402      H1403   0.993       .  S
C1405      C1406   1.405       .  A
C1405      C1410   1.404       .  A
C1406      C1407   1.410       .  A
C1406      H1411   1.083       .  S
C1407      C1408   1.412       .  A
C1407      O1412   1.372       .  S
C1408      C1409   1.401       .  A
C1409      C1410   1.394       .  A
C1409      H1413   1.084       .  S
C1410      O1414   1.374       .  S
O1412      H1416   0.991       .  S
O1414      H1415   0.992       .  S
C1417      C1418   1.405       .  A
C1417      C1422   1.413       .  A
C1418      C1419   1.403       .  A
C1418      H1423   1.083       .  S
C1419      C1420   1.410       .  A
C1419      O1424   1.371       .  S
C1420      C1421   1.399       .  A
C1421      C1422   1.397       .  A
C1421      H1425   1.084       .  S
C1422      O1426   1.372       .  S
O1424      H1428   0.991       .  S
O1426      H1427   0.992       .  S
C1429      C1430   1.397       .  A
C1429      C1434   1.405       .  A
C1430      C1431   1.391       .  A
C1430      H1435   1.084       .  S
C1431      C1432   1.408       .  A
C1431      O1436   1.373       .  S
C1432      C1433   1.406       .  A
C1433      C1434   1.402       .  A
C1433      H1437   1.083       .  S
C1434      O1918   1.371       .  S
O1436      H1440   0.992       .  S
O1438      C1914   1.371       .  S
O1438      H1439   0.992       .  S
C1441      C1442   1.355       .  D
C1441      C1480   1.563       .  S
C1442      C1897   1.493       .  S
C1442      C1912   1.482       .  S
C1443      C1444   1.350       .  D
C1443      C1478   1.557       .  S
C1444      C1873   1.492       .  S
C1444      C1888   1.490       .  S
O1445     Ni1453   2.058       .  S
O1445      C1455   1.310   1_565  A
O1446     Ni1453   2.016       .  S
O1446      C1456   1.304       .  A
O1447     Ni1453   2.058       .  S
O1447      C1457   1.296   1_565  A
O1448     Ni1453   2.070       .  S
O1448      C1458   1.305       .  A
O1449     Ni1454   1.840       .  S
O1449      C1458   1.232       .  A
O1450     Ni1454   1.880   1_545  S
O1450      C1457   1.223       .  A
O1451     Ni1454   1.913       .  S
O1451      C1456   1.256       .  A
O1452     Ni1454   1.936       .  S
O1452      C1455   1.252   1_565  A
Ni1453    Ni1454   2.170       .  S
C1459      C1460   1.366       .  D
C1459      C1852   1.500       .  S
C1459      C1861   1.488       .  S
C1460      C1492   1.555       .  S
C1461      C1462   1.352       .  D
C1461      C1494   1.559       .  S
C1462      C1825   1.486       .  S
C1462      C1837   1.489       .  S
C1463      C1464   1.347       .  D
C1464      C1801   1.476       .  S
C1464      C1813   1.493       .  S
C1465      C1466   1.360       .  D
C1466      C1777   1.478       .  S
C1466      C1789   1.510       .  S
O1467     Ni1475   2.034       .  S
O1467      C1477   1.291       .  A
O1468     Ni1475   2.052       .  S
O1468      C1478   1.306       .  A
O1469     Ni1475   2.047       .  S
O1469      C1479   1.305       .  A
O1470     Ni1475   2.041       .  S
O1470      C1480   1.304       .  A
O1471     Ni1476   1.810       .  S
O1471      C1480   1.245       .  A
O1472     Ni1476   1.861       .  S
O1472      C1479   1.240       .  A
O1473     Ni1476   1.859       .  S
O1473      C1478   1.253       .  A
O1474     Ni1476   1.900       .  S
O1474      C1477   1.253       .  A
Ni1475    Ni1476   2.308       .  S
O1482     Ni1489   1.922       .  S
O1482      C1492   1.283       .  A
O1484     Ni1489   1.810       .  S
O1484      C1494   1.245       .  A
O1485     Ni1490   2.071       .  S
O1485      C1494   1.318       .  A
O1486     Ni1490   2.036       .  S
O1486      C1493   1.282   1_565  A
O1487     Ni1490   1.970       .  S
O1487      C1492   1.290       .  A
O1488     Ni1490   2.075       .  S
O1488      C1491   1.310   1_565  A
Ni1489    Ni1490   2.274       .  S
C1495      C1496   1.355       .  D
C1495      C1756   1.498       .  S
C1495      C1765   1.481       .  S
C1496      C1514   1.535       .  S
C1496      C1534   1.594       .  S
C1497      C1498   1.354       .  D
C1497      C1547   1.569       .  S
C1498      C1729   1.496       .  S
C1498      C1744   1.486       .  S
C1499      C1500   1.343       .  D
C1499      C1705   1.472       .  S
C1499      C1720   1.484       .  S
C1500      C1546   1.567       .  S
C1501      C1502   1.348       .  D
C1501      C1545   1.564       .  S
C1502      C1681   1.485       .  S
C1502      C1693   1.483       .  S
O1503     Ni1511   2.076       .  S
O1503      C1513   1.297       .  A
O1504     Ni1511   2.077       .  S
O1504      C1514   1.318       .  A
O1505     Ni1511   2.095       .  S
O1505      C1515   1.311       .  A
O1506     Ni1511   1.994       .  S
O1506      C1516   1.289       .  A
O1507     Ni1512   1.991       .  S
O1507      C1516   1.298       .  A
O1508     Ni1512   1.956       .  S
O1508      C1515   1.231       .  A
O1509     Ni1512   1.706       .  S
O1509      C1514   1.216       .  A
O1510     Ni1512   1.885       .  S
O1510      C1513   1.209       .  A
Ni1511    Ni1512   2.172       .  S
C1516      C1518   1.598       .  S
C1517      C1518   1.355       .  D
C1517      C1660   1.478       .  S
C1517      C1669   1.497       .  S
C1518      C1532   1.526       .  S
C1519      C1520   1.350       .  D
C1519      C1548   1.565       .  S
C1520      C1633   1.491       .  S
C1520      C1645   1.478       .  S
O1521     Ni1529   2.078       .  S
O1521      C1531   1.301       .  A
O1522     Ni1529   2.074   1_455  S
O1523     Ni1529   2.074       .  S
O1523      C1533   1.308       .  A
O1524     Ni1529   2.004   1_455  S
O1525      C1534   1.292       .  A
O1526     Ni1530   1.958       .  S
O1526      C1533   1.239       .  A
O1527      C1532   1.209       .  A
O1528     Ni1530   1.873       .  S
O1528      C1531   1.206       .  A
Ni1529    Ni1530   2.156       .  S
O1535      C1545   1.255       .  A
O1536     Ni1543   1.880   1_655  S
O1536      C1546   1.257       .  A
O1537      C1547   1.231       .  A
O1538     Ni1543   1.756   1_655  S
O1538      C1548   1.233       .  A
O1539     Ni1544   2.052       .  S
O1539      C1548   1.301       .  A
O1540     Ni1544   2.052   1_455  S
O1541     Ni1544   2.048       .  S
O1541      C1546   1.307       .  A
O1542     Ni1544   2.046   1_455  S
Ni1543    Ni1544   2.300   1_455  S
O1549     Ni1557   1.924       .  S
O1549      C1559   1.284       .  A
O1550     Ni1557   1.929   1_556  S
O1550      C1560   1.283       .  A
O1551     Ni1557   1.910       .  S
O1551      C1561   1.277   1_554  A
O1552     Ni1557   1.898       .  S
O1552      C1562   1.279       .  A
O1553     Ni1558   1.930       .  S
O1553      C1562   1.282       .  A
O1554     Ni1558   1.918       .  S
O1554      C1561   1.282   1_554  A
O1555     Ni1558   1.918       .  S
O1555      C1560   1.282   1_554  A
O1556     Ni1558   1.922       .  S
O1556      C1559   1.280       .  A
Ni1557    Ni1558   2.391       .  S
C1559      C1849   1.481       .  S
C1560      C1753   1.482       .  S
C1561      C1708   1.462       .  S
C1562      C1876   1.471       .  S
O1563     Ni1571   1.922       .  S
O1564      C1574   1.280       .  A
O1565      C1575   1.280       .  A
O1566     Ni1571   1.910       .  S
O1567     Ni1572   1.918       .  S
O1567      C1576   1.279       .  A
O1568     Ni1572   1.904       .  S
O1568      C1575   1.279   1_554  A
O1569     Ni1572   1.923       .  S
O1569      C1574   1.284   1_554  A
O1570     Ni1572   1.920       .  S
O1570      C1573   1.280       .  A
C1574      C1732   1.477       .  S
C1575      C1768   1.460       .  S
O1577      C1587   1.277       .  A
O1578     Ni1585   1.902       .  S
O1578      C1588   1.279   1_554  A
O1579     Ni1585   1.924       .  S
O1579      C1589   1.284   1_554  A
O1580      C1590   1.281       .  A
O1581     Ni1586   1.913       .  S
O1581      C1590   1.281       .  A
O1582     Ni1586   1.910       .  S
O1583     Ni1586   1.916       .  S
O1584     Ni1586   1.911       .  S
O1584      C1587   1.281       .  A
C1587      C1804   1.458       .  S
C1588      C1741   1.460       .  S
C1589      C1717   1.470       .  S
C1590      C1885   1.471       .  S
O1591     Ni1599   1.916       .  S
O1592     Ni1599   1.923       .  S
O1592      C1602   1.283       .  A
O1593     Ni1599   1.908       .  S
O1593      C1603   1.281       .  A
O1594     Ni1599   1.916       .  S
O1595     Ni1600   1.907       .  S
O1595      C1604   1.279   1_565  A
O1596      C1603   1.278       .  A
O1597      C1602   1.282       .  A
O1598     Ni1600   1.924       .  S
O1598      C1601   1.283       .  A
C1601      C1684   1.469       .  S
C1602      C1792   1.481       .  S
C1603      C1909   1.461       .  S
C1604      C1648   1.462   1_545  S
O1605     Ni1613   1.917       .  S
O1605      C1615   1.278       .  A
O1606     Ni1613   1.908       .  S
O1606      C1616   1.280       .  A
O1607     Ni1613   1.925       .  S
O1607      C1617   1.284       .  A
O1608     Ni1613   1.926       .  S
O1608      C1618   1.282       .  A
O1609     Ni1614   1.915       .  S
O1610      C1617   1.281       .  A
O1611      C1616   1.281       .  A
O1612     Ni1614   1.911       .  S
C1616      C1696   1.469       .  S
C1617      C1672   1.482       .  S
O1619     Ni1627   1.914       .  S
O1619      C1629   1.281       .  A
O1620     Ni1627   1.927       .  S
O1620      C1630   1.282       .  A
O1621     Ni1627   1.913       .  S
O1621      C1631   1.279       .  A
O1622     Ni1627   1.916       .  S
O1622      C1632   1.281       .  A
O1623     Ni1628   1.922       .  S
O1623      C1632   1.281       .  A
O1624     Ni1628   1.926       .  S
O1624      C1631   1.284       .  A
O1625     Ni1628   1.901       .  S
O1625      C1630   1.278       .  A
O1626     Ni1628   1.910       .  S
O1626      C1629   1.277       .  A
Ni1627    Ni1628   2.393       .  S
C1629      C1657   1.460       .  S
C1630      C1828   1.465       .  S
C1631      C1900   1.475       .  S
C1632      C1636   1.474       .  S
C1633      C1634   1.406       .  A
C1633      C1638   1.412       .  A
C1634      C1635   1.399       .  A
C1634      H1639   1.084       .  S
C1635      C1636   1.405       .  A
C1635      O1640   1.372       .  S
C1636      C1637   1.402       .  A
C1637      C1638   1.404       .  A
C1637      H1641   1.083       .  S
C1638      O1642   1.372       .  S
O1640      H1644   0.992       .  S
O1642      H1643   0.991       .  S
C1645      C1646   1.397       .  A
C1645      C1650   1.408       .  A
C1646      C1647   1.388       .  A
C1646      H1651   1.084       .  S
C1647      C1648   1.401       .  A
C1647      O1652   1.367       .  S
C1648      C1649   1.402       .  A
C1649      C1650   1.406       .  A
C1650      O1654   1.372       .  S
O1652      H1656   0.992       .  S
C1657      C1658   1.397       .  A
C1657      C1662   1.405       .  A
C1658      C1659   1.395       .  A
C1658      H1663   1.083       .  S
C1659      C1660   1.408       .  A
C1659      O1664   1.372       .  S
C1660      C1661   1.404       .  A
C1661      C1662   1.401       .  A
C1661      H1665   1.083       .  S
C1662      O1666   1.371       .  S
O1664      H1668   0.992       .  S
O1666      H1667   0.992       .  S
C1669      C1670   1.407       .  A
C1669      C1674   1.411       .  A
C1670      C1671   1.399       .  A
C1670      H1675   1.083       .  S
C1671      C1672   1.406       .  A
C1671      O1676   1.371       .  S
C1672      C1673   1.407       .  A
C1673      C1674   1.407       .  A
C1673      H1677   1.083       .  S
C1674      O1678   1.373       .  S
O1676      H1680   0.992       .  S
O1678      H1679   0.991       .  S
C1681      C1682   1.407       .  A
C1681      C1686   1.407       .  A
C1682      C1683   1.407       .  A
C1682      H1687   1.083       .  S
C1683      C1684   1.407       .  A
C1683      O1688   1.371       .  S
C1684      C1685   1.399       .  A
C1685      C1686   1.394       .  A
C1686      O1690   1.372       .  S
O1688      H1692   0.992       .  S
C1693      C1694   1.404       .  A
C1693      C1698   1.408       .  A
C1694      C1695   1.394       .  A
C1694      H1699   1.083       .  S
C1695      C1696   1.403       .  A
C1695      O1700   1.373       .  S
C1696      C1697   1.404       .  A
C1697      C1698   1.406       .  A
C1697      H1701   1.084       .  S
C1698      O1702   1.370       .  S
O1700      H1704   0.992       .  S
C1705      C1706   1.398       .  A
C1705      C1710   1.408       .  A
C1706      C1707   1.396       .  A
C1706      H1711   1.083       .  S
C1707      C1708   1.404       .  A
C1707      O1712   1.371   1_556  S
C1708      C1709   1.400       .  A
C1709      C1710   1.400       .  A
C1709      H1713   1.084       .  S
C1710      O1714   1.372       .  S
O1712      H1716   0.991       .  S
O1714      H1715   0.991       .  S
C1717      C1718   1.403   1_565  A
C1717      C1722   1.405       .  A
C1718      C1719   1.401       .  A
C1718      H1723   1.084       .  S
C1719      C1720   1.409   1_545  A
C1719      O1724   1.372       .  S
C1720      C1721   1.405       .  A
C1721      C1722   1.398       .  A
C1721      H1725   1.082       .  S
C1722      O1726   1.371       .  S
O1724      H1728   0.992       .  S
O1726      H1727   0.992       .  S
C1729      C1730   1.408       .  A
C1729      C1734   1.414       .  A
C1730      C1731   1.397       .  A
C1730      H1735   1.084       .  S
C1731      C1732   1.404       .  A
C1731      O1736   1.372       .  S
C1732      C1733   1.404       .  A
C1733      C1734   1.407       .  A
C1733      H1737   1.084       .  S
C1734      O1738   1.373       .  S
O1736      H1740   0.992       .  S
O1738      H1739   0.991       .  S
C1741      C1742   1.395       .  A
C1742      C1743   1.388       .  A
C1742      H1747   1.084   1_556  S
C1743      C1744   1.409       .  A
C1743      O1748   1.372       .  S
C1744      C1745   1.407       .  A
C1745      H1749   1.083       .  S
C1746      O1750   1.371       .  S
O1748      H1752   0.992   1_556  S
O1750      H1751   0.992       .  S
C1753      C1754   1.402       .  A
C1753      C1758   1.410       .  A
C1754      C1755   1.398       .  A
C1754      H1759   1.084       .  S
C1755      C1756   1.412       .  A
C1755      O1760   1.372       .  S
C1756      C1757   1.407       .  A
C1757      C1758   1.406       .  A
C1757      H1761   1.083       .  S
C1758      O1762   1.371       .  S
O1760      H1764   0.992       .  S
O1762      H1763   0.992       .  S
C1765      C1766   1.405       .  A
C1765      C1770   1.408       .  A
C1766      C1767   1.402       .  A
C1766      H1771   1.083       .  S
C1767      C1768   1.405       .  A
C1767      O1772   1.371       .  S
C1768      C1769   1.398       .  A
C1769      C1770   1.391       .  A
C1769      H1773   1.083   1_556  S
C1770      O1774   1.372       .  S
O1774      H1775   0.991       .  S
C1777      C1782   1.407       .  A
C1778      C1779   1.391       .  A
C1778      H1783   1.084       .  S
C1779      O1784   1.372       .  S
C1780      C1781   1.404       .  A
C1781      C1782   1.408   1_455  A
C1781      H1785   1.083       .  S
C1782      O1786   1.374       .  S
O1784      H1788   0.992       .  S
O1786      H1787   0.992       .  S
C1789      C1790   1.409       .  A
C1789      C1794   1.413       .  A
C1790      C1791   1.405       .  A
C1790      H1795   1.080       .  S
C1791      C1792   1.406       .  A
C1792      C1793   1.401       .  A
C1793      C1794   1.404       .  A
C1793      H1797   1.084       .  S
C1794      O1798   1.371       .  S
O1796      H1800   0.992       .  S
O1798      H1799   0.992       .  S
C1801      C1802   1.404       .  A
C1801      C1806   1.407       .  A
C1802      C1803   1.403       .  A
C1802      H1807   1.083       .  S
C1803      C1804   1.406       .  A
C1803      O1808   1.371       .  S
C1804      C1805   1.397       .  A
C1805      C1806   1.389       .  A
C1805      H1809   1.084       .  S
C1806      O1810   1.372       .  S
O1808      H1812   0.992       .  S
O1810      H1811   0.992       .  S
C1813      C1818   1.413       .  A
C1814      C1815   1.405       .  A
C1814      H1819   1.083       .  S
C1815      O1820   1.371       .  S
C1816      C1817   1.399   1_455  A
C1817      C1818   1.396       .  A
C1817      H1821   1.084       .  S
C1818      O1822   1.371       .  S
O1820      H1824   0.992       .  S
O1822      H1823   0.992       .  S
C1825      C1826   1.403       .  A
C1825      C1830   1.409       .  A
C1826      C1827   1.394       .  A
C1826      H1831   1.083       .  S
C1827      C1828   1.404       .  A
C1827      O1832   1.372       .  S
C1828      C1829   1.402       .  A
C1829      C1830   1.405       .  A
C1829      H1833   1.084       .  S
C1830      O1834   1.373       .  S
O1832      H1836   0.992       .  S
O1834      H1835   0.992       .  S
C1837      C1838   1.403       .  A
C1838      C1839   1.399       .  A
C1838      H1843   1.084       .  S
C1839      C1840   1.408   1_655  A
C1839      O1844   1.372       .  S
C1841      C1842   1.407       .  A
C1841      H1845   1.084       .  S
C1842      O1846   1.373       .  S
O1844      H1848   0.992       .  S
O1846      H1847   0.992       .  S
C1849      C1850   1.399       .  A
C1849      C1854   1.410       .  A
C1850      C1851   1.400       .  A
C1850      H1855   1.084       .  S
C1851      C1852   1.414       .  A
C1851      O1856   1.373       .  S
C1852      C1853   1.407       .  A
C1853      C1854   1.406       .  A
C1853      H1857   1.083       .  S
C1854      O1858   1.370       .  S
O1856      H1860   0.992       .  S
O1858      H1859   0.992       .  S
C1861      C1866   1.408       .  A
C1862      C1863   1.401       .  A
C1862      H1867   1.083       .  S
C1863      O1868   1.371       .  S
C1864      C1865   1.399   1_455  A
C1865      C1866   1.395       .  A
C1865      H1869   1.084       .  S
C1866      O1870   1.373       .  S
O1868      H1872   0.992       .  S
O1870      H1871   0.992       .  S
C1873      C1874   1.409       .  A
C1873      C1878   1.410       .  A
C1874      C1875   1.407       .  A
C1874      H1879   1.082       .  S
C1875      C1876   1.407       .  A
C1875      O1880   1.371       .  S
C1876      C1877   1.398       .  A
C1877      C1878   1.392       .  A
C1877      H1881   1.084       .  S
C1878      O1882   1.373       .  S
O1880      H1884   0.992       .  S
O1882      H1883   0.993       .  S
C1885      C1886   1.405       .  A
C1885      C1890   1.404       .  A
C1886      C1887   1.410       .  A
C1886      H1891   1.083       .  S
C1887      C1888   1.412       .  A
C1887      O1892   1.372       .  S
C1888      C1889   1.401       .  A
C1889      C1890   1.394       .  A
C1889      H1893   1.084       .  S
C1890      O1894   1.374       .  S
O1892      H1896   0.991       .  S
O1894      H1895   0.992       .  S
C1897      C1898   1.405       .  A
C1897      C1902   1.413       .  A
C1898      C1899   1.403       .  A
C1898      H1903   1.083       .  S
C1899      C1900   1.410       .  A
C1899      O1904   1.371       .  S
C1900      C1901   1.399       .  A
C1901      C1902   1.397       .  A
C1901      H1905   1.084       .  S
C1902      O1906   1.372       .  S
O1904      H1908   0.991       .  S
O1906      H1907   0.992       .  S
C1909      C1910   1.397       .  A
C1909      C1914   1.405       .  A
C1910      C1911   1.391       .  A
C1910      H1915   1.084       .  S
C1911      C1912   1.408       .  A
C1911      O1916   1.373       .  S
C1912      C1913   1.406       .  A
C1913      C1914   1.402       .  A
C1913      H1917   1.083       .  S
O1916      H1920   0.992       .  S
O1918      H1919   0.992   1_545  S
