geometry optimzed in LAMMPS
_audit_creation_date              2020-11-30 
_audit_creation_method            'lammps2cif' 
_symmetry_space_group_name_H-M    'P1' 
_symmetry_Int_Tables_number       1 
_symmetry_cell_setting            triclinic 
loop_ 
_symmetry_equiv_pos_as_xyz 
  x,y,z 
_cell_length_a                    40.24172127 
_cell_length_b                    40.004483614089736 
_cell_length_c                    47.07167035278439 
_cell_angle_alpha                 78.32513657543466 
_cell_angle_beta                  78.04734066689525 
_cell_angle_gamma                 88.11193170044284 
loop_ 
_atom_site_label 
_atom_site_type_symbol 
_atom_site_fract_x 
_atom_site_fract_y 
_atom_site_fract_z 
_atom_site_charge 
N1          N  0.29680049  0.02732658  0.24407253    -0.03200
C2          C  0.33051807  0.02035279  0.23688808    -0.00600
C3          C  0.33996964  0.02037341  0.20687197    -0.23500
C4          C  0.31143121  0.02748350  0.19519369    -0.23700
C5          C  0.28528773  0.03140942  0.21838838    -0.00700
H6          H  0.36514467  0.01628847  0.19460039     0.13100
H7          H  0.30976158  0.02893897  0.17231764     0.13100
N8          N  0.61709740  0.01098812  0.33832282    -0.03200
C9          C  0.58372096  0.01963139  0.34288517    -0.00600
C10         C  0.57213877  0.02251410  0.37211275    -0.23500
C11         C  0.59899364  0.01527084  0.38605647    -0.23700
C12         C  0.62620027  0.00848779  0.36488137    -0.00700
H13         H  0.54654768  0.02822885  0.38245922     0.13100
H14         H  0.59886566  0.01546722  0.40903544     0.13100
N15         N  0.95811846  0.37798944  0.23794724    -0.03200
C16         C  0.96869281  0.41106535  0.23034929    -0.00600
C17         C  0.97476161  0.42188732  0.19985084    -0.23500
C18         C  0.96765353  0.39470832  0.18831464    -0.23700
C19         C  0.95771978  0.36814041  0.21210572    -0.00700
H20         H  0.98250876  0.44718508  0.18735460     0.13100
H21         H  0.96992811  0.39421772  0.16508930     0.13100
N22         N  0.96430181  0.69609737  0.33278387    -0.03200
C23         C  0.95542413  0.66257247  0.33976510    -0.00600
C24         C  0.95152366  0.65046480  0.36996070    -0.23500
C25         C  0.95837041  0.67733471  0.38197812    -0.23700
C26         C  0.96599419  0.70504910  0.35876491    -0.00700
H27         H  0.94538461  0.62458501  0.38185965     0.13100
H28         H  0.95738104  0.67683785  0.40521361     0.13100
C29         C  0.04416515  0.05146356  0.09734639     0.42700
N30         N  0.02215262  0.03258548  0.06570420     0.01600
C31         C  0.92388868  0.12452598  0.47216476    -0.06200
H32         H  0.88009674  0.11969378  0.08757662     0.07100
C33         C  0.86296239  0.99644572  0.10288047    -0.06600
Co34       Co  0.99313781  0.08890443  0.02576331     0.74200
N35         N  0.92452301  0.10462225  0.05882949    -0.25800
Co36       Co  0.90666616  0.07496988  0.03365979     0.74100
C37         C  0.84353767  0.02517486  0.11268649     0.42800
N38         N  0.94506267  0.96504951  0.08138431     0.01200
N39         N  0.87944742  0.04365132  0.07209025     0.01300
N40         N  0.98019099  0.13309934  0.46741274    -0.46600
H41         H  0.03091316  0.10702132  0.07855753     0.07100
N42         N  0.95734448  0.10999757  0.05588810     0.01600
N43         N  0.89029464  0.04414577  0.00854693     0.01400
C44         C  0.86733486  0.02584670  0.47728897     0.43000
N45         N  0.97786967  0.97065680  0.07840382    -0.25200
C46         C  0.05041186  0.08003590  0.47141920    -0.06200
N47         N  0.03824446  0.02289580  0.08787701    -0.46300
N48         N  0.87367740  0.05415777  0.48684205    -0.46600
C49         C  0.07031235  0.05138133  0.46197698     0.42800
N50         N  0.96757019  0.11100324  0.49213390     0.01600
N51         N  0.98822953  0.97189317  0.01504099    -0.25300
N52         N  0.01736857  0.06584988  0.05982334    -0.25700
N53         N  0.95541497  0.96659690  0.01770995     0.01300
H54         H  0.03290412  0.95577558  0.48729241     0.07200
H55         H  0.88057562  0.97004363  0.49537469     0.07200
N56         N  0.93466863  0.10564144  0.49543713    -0.25800
N57         N  0.88448300  0.01038934  0.07766041    -0.25400
N58         N  0.03353053  0.03280490  0.50199599     0.01600
C59         C  0.93363185  0.13545778  0.09067796     0.43000
C60         C  0.98874088  0.95074212  0.10115911    -0.06700
N61         N  0.89508421  0.01087716  0.01408237    -0.25400
H62         H  0.86064098  0.96949328  0.11256865     0.07200
N63         N  0.96390750  0.12836482  0.07454640    -0.46600
H64         H  0.01490817  0.94840215  0.10355670     0.07200
C65         C  0.97950384  0.94003545  0.48376664     0.42900
C66         C  0.03046372  0.08001177  0.07860282    -0.06200
Co67       Co  0.00601821  0.00155095  0.04037647     0.73800
N68         N  0.93264332  0.94169275  0.10527941    -0.46300
C69         C  0.95413066  0.14270724  0.45348480     0.43100
N70         N  0.05833521  0.02302980  0.48211726    -0.46300
Co71       Co  0.91952879  0.98757571  0.04792365     0.73900
C72         C  0.88137460  0.99701988  0.99545744    -0.06700
C73         C  0.90739164  0.11998317  0.08014497    -0.06200
N74         N  0.02838747  0.06603799  0.49628184    -0.25800
N75         N  0.85521027  0.05348810  0.09237495    -0.46500
H76         H  0.89781906  0.12632183  0.46944228     0.07100
C77         C  0.00556041  0.95591945  0.49423182    -0.06600
Cl78       Cl  0.95634783  0.03823932  0.03692366    -0.49600
C79         C  0.95868777  0.93147676  0.11905170     0.42900
H80         H  0.05293764  0.10703188  0.46189871     0.07100
N81         N  0.94906869  0.94758564  0.99941872    -0.46400
C82         C  0.97253308  0.73958833  0.36308450    -0.02900
C83         C  0.95492470  0.76794857  0.35095165    -0.05500
C84         C  0.95727974  0.79935004  0.35917051    -0.20600
C85         C  0.97726779  0.80293701  0.37957132     0.25100
C86         C  0.99574947  0.77464156  0.39091182    -0.18200
C87         C  0.99338282  0.74338011  0.38268315    -0.08100
C88         C  0.97504698  0.83493474  0.39126814    -0.18400
C89         C  0.99803549  0.84392967  0.40553108    -0.23200
C90         C  0.99290384  0.87159516  0.42278517     0.27200
C91         C  0.02091565  0.88269281  0.43199796    -0.20000
C92         C  0.01676754  0.90561348  0.45121004    -0.09600
C93         C  0.98437364  0.91770070  0.46185467    -0.10200
C94         C  0.95640154  0.90736407  0.45212385    -0.03100
C95         C  0.96053969  0.88451059  0.43281745    -0.18200
H96         H  0.93793834  0.76543542  0.33642143     0.10900
H97         H  0.94242758  0.82056886  0.35043113     0.10900
H98         H  0.01057931  0.77576549  0.40738673     0.10600
H99         H  0.00689779  0.72169308  0.39254531     0.11700
H100        H  0.95306618  0.85084025  0.38878498     0.11800
H101        H  0.02152249  0.82978897  0.40543448     0.13700
H102        H  0.04605222  0.87294015  0.42485938     0.10200
H103        H  0.03882269  0.91286847  0.95848620     0.12300
H104        H  0.93113694  0.91638286  0.45995702     0.08900
H105        H  0.93808176  0.87608773  0.42695597     0.11700
C106        C  0.95745755  0.90157041  0.14385083    -0.02900
C107        C  0.92646964  0.88504641  0.15818959    -0.05500
C108        C  0.92533547  0.85660030  0.18131975    -0.20600
C109        C  0.95511562  0.84375588  0.19063226     0.25100
C110        C  0.98615570  0.86052656  0.17633316    -0.18200
C111        C  0.98724607  0.88901650  0.15327074    -0.08100
C112        C  0.95221156  0.81383642  0.21593495    -0.18400
C113        C  0.97878783  0.79595604  0.22441701    -0.23200
C114        C  0.97519206  0.76807189  0.25120344     0.27200
C115        C  0.00207238  0.76228463  0.26642829    -0.20000
C116        C  0.99891112  0.73792527  0.29277002    -0.09600
C117        C  0.96907788  0.71836818  0.30406766    -0.10200
C118        C  0.94287038  0.72271475  0.28813847    -0.03100
C119        C  0.94578402  0.74744106  0.26198137    -0.18200
H120        H  0.90302728  0.89415069  0.15156616     0.10900
H121        H  0.90099477  0.84453105  0.19198806     0.10900
H122        H  0.00973355  0.85235568  0.18298001     0.10600
H123        H  0.01156073  0.90115808  0.14287628     0.11700
H124        H  0.92678271  0.80679866  0.22856430     0.11800
H125        H  0.00445780  0.80288849  0.21254806     0.13700
H126        H  0.02514785  0.77747346  0.25844340     0.10200
H127        H  0.01944194  0.73473425  0.30473845     0.12300
H128        H  0.91970302  0.70775664  0.29656996     0.08900
H129        H  0.92499305  0.75036223  0.25036080     0.11700
C130        C  0.95103120  0.35629748  0.26696808    -0.02900
C131        C  0.92042702  0.33771523  0.27695896    -0.05500
C132        C  0.91561498  0.31256104  0.30289478    -0.20600
C133        C  0.94158183  0.30501256  0.31900620     0.25100
C134        C  0.97158568  0.32491159  0.30975003    -0.18200
C135        C  0.97617447  0.35039725  0.28398735    -0.08100
C136        C  0.93659904  0.27615633  0.34511814    -0.18400
C137        C  0.96249692  0.25692297  0.35345328    -0.23200
C138        C  0.95896598  0.22704258  0.37885697     0.27200
C139        C  0.98871582  0.21133356  0.38615404    -0.20000
C140        C  0.98714399  0.18384360  0.41015968    -0.09600
C141        C  0.95569968  0.17107304  0.42738590    -0.10200
C142        C  0.92585241  0.18611849  0.41975840    -0.03100
C143        C  0.92739262  0.21379011  0.39588038    -0.18200
H144        H  0.90072230  0.34202800  0.26409433     0.10900
H145        H  0.89207725  0.29802195  0.30974262     0.10900
H146        H  0.99166209  0.32066307  0.32217792     0.10600
H147        H  0.99993692  0.36449009  0.27655961     0.11700
H148        H  0.91064009  0.26986730  0.35651248     0.11800
H149        H  0.98804594  0.26310516  0.34070243     0.13700
H150        H  0.01342326  0.22063054  0.37339611     0.10200
H151        H  0.01059419  0.17262779  0.41530187     0.12300
H152        H  0.90116822  0.17691359  0.43250642     0.08900
H153        H  0.90367906  0.22445581  0.39112510     0.11700
C154        C  0.95004955  0.33356555  0.20880262    -0.02900
C155        C  0.96805634  0.30532561  0.22050919    -0.05500
C156        C  0.96389063  0.27346381  0.21375173    -0.20600
C157        C  0.94151641  0.26930787  0.19541015     0.25100
C158        C  0.92273164  0.29760489  0.18450832    -0.18200
C159        C  0.92709553  0.32940064  0.19111834    -0.08100
C160        C  0.94181001  0.23668800  0.18493272    -0.18400
C161        C  0.91763154  0.22767332  0.17190415    -0.23200
C162        C  0.92198882  0.20029830  0.15438041     0.27200
C163        C  0.89334251  0.18858101  0.14648506    -0.20000
C164        C  0.89688278  0.16660448  0.12646513    -0.09600
C165        C  0.92925552  0.15619079  0.11374689    -0.10200
C166        C  0.95782131  0.16687774  0.12238874    -0.03100
C167        C  0.95431208  0.18876746  0.14241162    -0.18200
H168        H  0.98646035  0.30825484  0.23368154     0.10900
H169        H  0.97906788  0.25227357  0.22202441     0.10900
H170        H  0.90606331  0.29600496  0.16954266     0.10600
H171        H  0.91330170  0.35108999  0.18164002     0.11700
H172        H  0.96373329  0.22049437  0.18677356     0.11800
H173        H  0.89416548  0.24193763  0.17271366     0.13700
H174        H  0.86820457  0.19728297  0.15515288     0.10200
H175        H  0.87435551  0.15873070  0.12029120     0.12300
H176        H  0.98308114  0.15911211  0.11299142     0.08900
H177        H  0.97720058  0.19777752  0.14714854     0.11700
C178        C  0.96938178  0.43476781  0.25055001    -0.02900
C179        C  0.94189317  0.43643384  0.27402467    -0.05500
C180        C  0.93868538  0.46442708  0.28804079    -0.20600
C181        C  0.96262652  0.49125005  0.27853492     0.25100
C182        C  0.99152314  0.48808584  0.25669790    -0.18200
C183        C  0.99475612  0.46015356  0.24280717    -0.08100
C184        C  0.95634490  0.52238437  0.29133530    -0.18400
C185        C  0.96780893  0.55368572  0.27635362    -0.23200
C186        C  0.96127114  0.58466744  0.28938779     0.27200
C187        C  0.98508436  0.61161757  0.28031436    -0.20000
C188        C  0.98182914  0.63901877  0.29505661    -0.09600
C189        C  0.95450223  0.63985881  0.31885903    -0.10200
C190        C  0.92918959  0.61451814  0.32611665    -0.03100
C191        C  0.93234998  0.58730512  0.31139214    -0.18200
H192        H  0.92173184  0.41747525  0.28013635     0.10900
H193        H  0.91648200  0.46606103  0.30520211     0.10900
H194        H  0.01128894  0.50744871  0.24979141     0.10600
H195        H  0.01638927  0.45916734  0.22495644     0.11700
H196        H  0.94078496  0.51936487  0.31348062     0.11800
H197        H  0.98347866  0.55673389  0.25424384     0.13700
H198        H  0.00726577  0.61045290  0.26301241     0.10200
H199        H  0.00187609  0.65808908  0.28929866     0.12300
H200        H  0.90771068  0.61493321  0.34423309     0.08900
H201        H  0.91258872  0.56795024  0.31791866     0.11700
C202        C  0.66060436  0.00225090  0.37087352    -0.02900
C203        C  0.66531858  0.97700393  0.39504535    -0.05500
C204        C  0.69650507  0.97399341  0.40380285    -0.20600
C205        C  0.72320619  0.99679743  0.38908679     0.25100
C206        C  0.71891862  0.02128292  0.36406006    -0.18200
C207        C  0.68776537  0.02390922  0.35499071    -0.08100
C208        C  0.75428181  0.99509556  0.40157200    -0.18400
C209        C  0.77286756  0.02292301  0.40043779    -0.23200
C210        C  0.79960416  0.02290301  0.41808121     0.27200
C211        C  0.80934416  0.05417228  0.42324342    -0.20000
C212        C  0.83198194  0.05517828  0.44193486    -0.09600
C213        C  0.84544610  0.02488942  0.45581573    -0.10200
C214        C  0.83704452  0.99374427  0.44958139    -0.03100
C215        C  0.81452618  0.99272804  0.43080403    -0.18200
H216        H  0.64452682  0.96018699  0.40762153     0.10900
H217        H  0.69926040  0.95481214  0.42300889     0.10900
H218        H  0.73930088  0.03870931  0.35180537     0.10600
H219        H  0.68440143  0.04377111  0.33644943     0.11700
H220        H  0.75904002  0.97096999  0.41531243     0.11800
H221        H  0.76585050  0.04748808  0.38866605     0.13700
H222        H  0.79863351  0.07785735  0.41348205     0.10200
H223        H  0.83836610  0.07963840  0.44601158     0.12300
H224        H  0.84738509  0.97001837  0.95952847     0.08900
H225        H  0.80893628  0.96817832  0.42657611     0.11700
C226        C  0.63932215  0.00685594  0.31096498    -0.02900
C227        C  0.66005689  0.97801493  0.31008183    -0.05500
C228        C  0.68416794  0.97550822  0.28449195    -0.20600
C229        C  0.68852345  0.00203069  0.25934605     0.25100
C230        C  0.66686870  0.03043849  0.25993575    -0.18200
C231        C  0.64248364  0.03273625  0.28549987    -0.08100
C232        C  0.71574404  0.99893712  0.23307189    -0.18400
C233        C  0.73146208  0.02611219  0.21350043    -0.23200
C234        C  0.76008013  0.02431207  0.18775244     0.27200
C235        C  0.77233642  0.05500174  0.16846142    -0.20000
C236        C  0.79930196  0.05519206  0.14423350    -0.09600
C237        C  0.81493869  0.02462840  0.13856855    -0.10200
C238        C  0.80289342  0.99384901  0.15779433    -0.03100
C239        C  0.77582534  0.99361082  0.18207336    -0.18200
H240        H  0.65787129  0.95765415  0.32944235     0.10900
H241        H  0.70011336  0.95315964  0.28461540     0.10900
H242        H  0.66860257  0.05090729  0.24074881     0.10600
H243        H  0.62674036  0.05519033  0.28575883     0.11700
H244        H  0.72395485  0.97334263  0.23100718     0.11800
H245        H  0.72355263  0.05148611  0.21678507     0.13700
H246        H  0.76098558  0.07910167  0.17214177     0.10200
H247        H  0.80795562  0.07938991  0.12993017     0.12300
H248        H  0.81437300  0.96982324  0.15415374     0.08900
H249        H  0.76776904  0.96928710  0.19621876     0.11700
C250        C  0.09996111  0.05224039  0.43690971    -0.02900
C251        C  0.11266499  0.08331017  0.41863658    -0.05500
C252        C  0.14038515  0.08393990  0.39494087    -0.20600
C253        C  0.15625347  0.05360718  0.38876044     0.25100
C254        C  0.14354760  0.02242622  0.40716821    -0.18200
C255        C  0.11584304  0.02183858  0.43095565    -0.08100
C256        C  0.18447332  0.05594625  0.36203700    -0.18400
C257        C  0.20477033  0.02982214  0.35521000    -0.23200
C258        C  0.23078339  0.03173144  0.32702033     0.27200
C259        C  0.25349610  0.00444606  0.32428728    -0.20000
C260        C  0.27621870  0.00357347  0.29746244    -0.09600
C261        C  0.27661942  0.02992698  0.27270763    -0.10200
C262        C  0.25490008  0.05774869  0.27557273    -0.03100
C263        C  0.23215682  0.05865351  0.30226959    -0.18200
H264        H  0.10116161  0.10724498  0.42250023     0.10900
H265        H  0.14931149  0.10836293  0.38117733     0.10900
H266        H  0.15424599  0.99829575  0.40312142     0.10600
H267        H  0.10658168  0.99743448  0.44453592     0.11700
H268        H  0.18841981  0.08075956  0.34742975     0.11800
H269        H  0.20235088  0.00558066  0.37072483     0.13700
H270        H  0.25309075  0.98326310  0.34278393     0.10200
H271        H  0.29257158  0.98174460  0.29567216     0.12300
H272        H  0.25492201  0.07840479  0.25674376     0.08900
H273        H  0.21506077  0.07999187  0.30275858     0.11700
C274        C  0.24966280  0.03655266  0.21481098    -0.01900
C275        C  0.24273319  0.06082886  0.19083267    -0.05500
C276        C  0.21081859  0.06206485  0.18344865    -0.20600
C277        C  0.18496095  0.03884744  0.19991221     0.25100
C278        C  0.19155370  0.01541304  0.22469758    -0.18200
C279        C  0.22360162  0.01435270  0.23218865    -0.08100
C280        C  0.15272467  0.03581490  0.18963516    -0.18400
C281        C  0.14068714  0.06120096  0.17098257    -0.23200
C282        C  0.11270337  0.05726946  0.15551884     0.27200
C283        C  0.09874248  0.08693979  0.14115303    -0.20000
C284        C  0.07561976  0.08501085  0.12311304    -0.09600
C285        C  0.06611266  0.05328142  0.11870865    -0.10200
C286        C  0.07904467  0.02342359  0.13387673    -0.03100
C287        C  0.10216945  0.02533367  0.15206302    -0.18200
H288        H  0.26260346  0.07795168  0.17695581     0.10900
H289        H  0.20742958  0.07989709  0.16371936     0.10900
H290        H  0.17228354  0.99702939  0.23759826     0.10600
H291        H  0.22857248  0.99495073  0.25045499     0.11700
H292        H  0.13932769  0.01152280  0.19698308     0.11800
H293        H  0.15242946  0.08630164  0.16599078     0.13700
H294        H  0.10645769  0.11186752  0.14325689     0.10200
H295        H  0.06605329  0.10854681  0.11197244     0.12300
H296        H  0.07205347  0.99859003  0.13100684     0.08900
H297        H  0.11270767  0.00182746  0.16220505     0.11700
C298        C  0.35559809  0.01591693  0.25642465    -0.02900
C299        C  0.35652827  0.03790455  0.27599288    -0.05500
C300        C  0.38432753  0.03756352  0.28974314    -0.20600
C301        C  0.41189045  0.01570025  0.28380974     0.25100
C302        C  0.40986097  0.99225279  0.26566380    -0.18200
C303        C  0.38210232  0.99251105  0.25207322    -0.08100
C304        C  0.44254274  0.01884406  0.29620858    -0.18400
C305        C  0.47407026  0.00965694  0.28396950    -0.23200
C306        C  0.50461322  0.01515595  0.29569196     0.27200
C307        C  0.53201654  0.99249762  0.29284308    -0.20000
C308        C  0.55965325  0.99538636  0.30614045    -0.09600
C309        C  0.56041106  0.02132963  0.32210497    -0.10200
C310        C  0.53436496  0.04557377  0.32280491    -0.03100
C311        C  0.50680596  0.04261663  0.30971071    -0.18200
H312        H  0.33684257  0.05663374  0.27937298     0.10900
H313        H  0.38506528  0.05561412  0.30393844     0.10900
H314        H  0.42978756  0.97400090  0.26149503     0.10600
H315        H  0.38185149  0.97501675  0.23730178     0.11700
H316        H  0.43910577  0.03071205  0.31540048     0.11800
H317        H  0.47790377  0.99742798  0.26499840     0.13700
H318        H  0.53120009  0.97148982  0.28164560     0.10200
H319        H  0.57912957  0.97607526  0.30562320     0.12300
H320        H  0.53456614  0.06602618  0.33474906     0.08900
H321        H  0.48700028  0.06151883  0.31110106     0.11700
N322        N  0.29679322  0.02731537  0.74407200    -0.03200
C323        C  0.33050723  0.02032381  0.73688978    -0.00600
C324        C  0.33994627  0.02029359  0.70688173    -0.23500
C325        C  0.31140359  0.02738734  0.69520692    -0.23700
C326        C  0.28526987  0.03135512  0.71839541    -0.00700
H327        H  0.36511596  0.01618537  0.69461251     0.13100
H328        H  0.30972532  0.02880856  0.67233720     0.13100
N329        N  0.61709023  0.01098779  0.83832460    -0.03200
C330        C  0.58371200  0.01962436  0.84288057    -0.00600
C331        C  0.57212183  0.02252504  0.87210241    -0.23500
C332        C  0.59897331  0.01530094  0.88605108    -0.23700
C333        C  0.62618531  0.00851114  0.86488399    -0.00700
H334        H  0.54652747  0.02823892  0.88244190     0.13100
H335        H  0.59883958  0.01551267  0.90902829     0.13100
N336        N  0.95807371  0.37799835  0.73795852    -0.03200
C337        C  0.96863848  0.41107604  0.73037001    -0.00600
C338        C  0.97467741  0.42191813  0.69987464    -0.23500
C339        C  0.96756189  0.39474710  0.68833075    -0.23700
C340        C  0.95765394  0.36816436  0.71211479    -0.00700
H341        H  0.98241440  0.44722184  0.68738664     0.13100
H342        H  0.96982038  0.39427022  0.66510459     0.13100
N343        N  0.96429633  0.69607740  0.83279445    -0.03200
C344        C  0.95540990  0.66255425  0.83977379    -0.00600
C345        C  0.95147325  0.65045127  0.86997288    -0.23500
C346        C  0.95830529  0.67732096  0.88199546    -0.23700
C347        C  0.96595899  0.70503146  0.85878189    -0.00700
H348        H  0.94531516  0.62457514  0.88187270     0.13100
H349        H  0.95728665  0.67682653  0.90523481     0.13100
C350        C  0.04417019  0.05146335  0.59734810     0.42700
N351        N  0.02217044  0.03257860  0.56570105     0.01600
C352        C  0.92390972  0.12451695  0.97213499    -0.06200
H353        H  0.88010386  0.11967517  0.58759200     0.07100
C354        C  0.86298924  0.99641198  0.60289611    -0.06600
Co355      Co  0.99314664  0.08889814  0.52576377     0.74200
N356        N  0.92453016  0.10460329  0.55884523    -0.25800
Co357      Co  0.90666979  0.07495161  0.53367633     0.74100
C358        C  0.84356321  0.02513663  0.61271031     0.42800
N359        N  0.94509209  0.96502881  0.58137647     0.01200
N360        N  0.87946273  0.04362329  0.57210889     0.01300
N361        N  0.98021062  0.13308479  0.96739681    -0.46600
H362        H  0.03090648  0.10701691  0.57855961     0.07100
N363        N  0.95735138  0.10998740  0.55589670     0.01600
N364        N  0.89028928  0.04413055  0.50856308     0.01400
C365        C  0.86736417  0.02586325  0.97725982     0.43000
N366        N  0.97789874  0.97063894  0.57839282    -0.25200
C367        C  0.05034731  0.08004036  0.97139795    -0.06200
N368        N  0.03825802  0.02289257  0.58787793    -0.46300
N369        N  0.87370112  0.05417441  0.98681418    -0.46600
C370        C  0.07023209  0.05139023  0.96193590     0.42800
N371        N  0.96757573  0.11100820  0.99212639     0.01600
N372        N  0.98824367  0.97189826  0.51502367    -0.25300
N373        N  0.01738242  0.06584279  0.55981956    -0.25700
N374        N  0.95542864  0.96659957  0.51769723     0.01300
H375        H  0.03289619  0.95572725  0.98734657     0.07200
H376        H  0.88059080  0.97005837  0.99535595     0.07200
N377        N  0.93467560  0.10564928  0.99542147    -0.25800
N378        N  0.88450335  0.01036187  0.57767357    -0.25400
N379        N  0.03351362  0.03280913  0.00199682     0.01600
C380        C  0.93363734  0.13545478  0.59068433     0.43000
C381        C  0.98877754  0.95071703  0.60114142    -0.06700
N382        N  0.89508476  0.01086279  0.51409310    -0.25400
H383        H  0.86067199  0.96945840  0.61258067     0.07200
N384        N  0.96391305  0.12836446  0.57454928    -0.46600
H385        H  0.01494688  0.94837516  0.60353308     0.07200
C386        C  0.97949884  0.93998441  0.98381704     0.42900
C387        C  0.03046973  0.08000767  0.57860089    -0.06200
Co388      Co  0.00603610  0.00154484  0.54036879     0.73800
N389        N  0.93267976  0.94166461  0.60526801    -0.46300
C390        C  0.95416045  0.14268254  0.95345465     0.43100
N391        N  0.05829006  0.02303644  0.98209215    -0.46300
Co392      Co  0.91954584  0.98756053  0.54792473     0.73900
C393        C  0.88136215  0.99700513  0.49547529    -0.06700
C394        C  0.90739875  0.11996622  0.58015973    -0.06200
N395        N  0.02836520  0.06604096  0.99628480    -0.25800
N396        N  0.85522861  0.05345336  0.59239979    -0.46500
H397        H  0.89784469  0.12630687  0.96939965     0.07100
C398        C  0.00555145  0.95588398  0.99427359    -0.06600
Cl399      Cl  0.95636007  0.03822847  0.53692544    -0.49600
C400        C  0.95872816  0.93144563  0.61903462     0.42900
H401        H  0.05285074  0.10703542  0.96186988     0.07100
N402        N  0.94907739  0.94761484  0.49938801    -0.46400
C403        C  0.97250821  0.73956574  0.86310891    -0.02900
C404        C  0.95494747  0.76794642  0.85094482    -0.05500
C405        C  0.95731334  0.79934532  0.85916650    -0.20600
C406        C  0.97726355  0.80290850  0.87960218     0.25100
C407        C  0.99569143  0.77458985  0.89098007    -0.18200
C408        C  0.99331648  0.74333297  0.88274720    -0.08100
C409        C  0.97505955  0.83491007  0.89129220    -0.18400
C410        C  0.99803582  0.84387615  0.90558158    -0.23200
C411        C  0.99291139  0.87153833  0.92283971     0.27200
C412        C  0.02091099  0.88257636  0.93210802    -0.20000
C413        C  0.01676020  0.90549384  0.95132323    -0.09600
C414        C  0.98437505  0.91763800  0.96191474    -0.10200
C415        C  0.95641666  0.90735594  0.95213358    -0.03100
C416        C  0.96055790  0.88450704  0.93282318    -0.18200
H417        H  0.93798970  0.76545376  0.83638549     0.10900
H418        H  0.94249989  0.82058235  0.85039939     0.10900
H419        H  0.01048567  0.77569465  0.90748448     0.10600
H420        H  0.00679256  0.72163093  0.89263577     0.11700
H421        H  0.95310091  0.85084017  0.88878296     0.11800
H422        H  0.02150427  0.82970696  0.90550937     0.13700
H423        H  0.04603840  0.87278022  0.92500982     0.10200
H424        H  0.03884190  0.91303375  0.45832970     0.12300
H425        H  0.93115953  0.91641926  0.95992605     0.08900
H426        H  0.93810710  0.87613193  0.92691883     0.11700
C427        C  0.95749882  0.90153748  0.64383299    -0.02900
C428        C  0.92651434  0.88499367  0.65814948    -0.05500
C429        C  0.92537694  0.85654249  0.68127508    -0.20600
C430        C  0.95515037  0.84371241  0.69060786     0.25100
C431        C  0.98618737  0.86050501  0.67633352    -0.18200
C432        C  0.98728103  0.88900027  0.65327393    -0.08100
C433        C  0.95223940  0.81378506  0.71590596    -0.18400
C434        C  0.97881418  0.79592596  0.72441469    -0.23200
C435        C  0.97521167  0.76804135  0.75120314     0.27200
C436        C  0.00208014  0.76226738  0.76644309    -0.20000
C437        C  0.99891216  0.73791217  0.79278846    -0.09600
C438        C  0.96908319  0.71834642  0.80407626    -0.10200
C439        C  0.94288945  0.72267812  0.78813162    -0.03100
C440        C  0.94580995  0.74739941  0.76197040    -0.18200
H441        H  0.90307644  0.89408488  0.65151056     0.10900
H442        H  0.90103821  0.84445781  0.69192397     0.10900
H443        H  0.00975937  0.85234630  0.68299694     0.10600
H444        H  0.01159244  0.90115943  0.64289818     0.11700
H445        H  0.92680505  0.80672604  0.72851092     0.11800
H446        H  0.00448753  0.80288090  0.71256878     0.13700
H447        H  0.02515135  0.77746387  0.75846698     0.10200
H448        H  0.01943369  0.73473188  0.80476717     0.12300
H449        H  0.91972616  0.70771184  0.79655407     0.08900
H450        H  0.92502848  0.75030802  0.75033921     0.11700
C451        C  0.95101352  0.35629286  0.76697268    -0.02900
C452        C  0.92041064  0.33771112  0.77697865    -0.05500
C453        C  0.91562173  0.31254497  0.80290502    -0.20600
C454        C  0.94161105  0.30498384  0.81898984     0.25100
C455        C  0.97161573  0.32487993  0.80971866    -0.18200
C456        C  0.97618075  0.35037921  0.78396650    -0.08100
C457        C  0.93664532  0.27612218  0.84509445    -0.18400
C458        C  0.96254614  0.25687378  0.85340478    -0.23200
C459        C  0.95901744  0.22699187  0.87880636     0.27200
C460        C  0.98876532  0.21127332  0.88609976    -0.20000
C461        C  0.98718866  0.18378845  0.91011135    -0.09600
C462        C  0.95574135  0.17103425  0.92734472    -0.10200
C463        C  0.92589780  0.18608482  0.91971608    -0.03100
C464        C  0.92744276  0.21374917  0.89583386    -0.18200
H465        H  0.90068862  0.34203417  0.76413262     0.10900
H466        H  0.89208322  0.29800739  0.80976615     0.10900
H467        H  0.99170942  0.32061928  0.82212719     0.10600
H468        H  0.99994259  0.36447209  0.77652558     0.11700
H469        H  0.91069067  0.26984574  0.85650755     0.11800
H470        H  0.98809052  0.26304720  0.84063922     0.13700
H471        H  0.01347364  0.22056104  0.87333678     0.10200
H472        H  0.01063620  0.17256565  0.91525391     0.12300
H473        H  0.90121182  0.17689148  0.93246805     0.08900
H474        H  0.90372954  0.22441689  0.89108006     0.11700
C475        C  0.95000335  0.33358673  0.70880329    -0.02900
C476        C  0.96802883  0.30535619  0.72050004    -0.05500
C477        C  0.96387197  0.27349087  0.71374579    -0.20600
C478        C  0.94148821  0.26932084  0.69541645     0.25100
C479        C  0.92268736  0.29760846  0.68452191    -0.18200
C480        C  0.92704301  0.32940869  0.69112830    -0.08100
C481        C  0.94179004  0.23669863  0.68494031    -0.18400
C482        C  0.91760784  0.22766797  0.67192305    -0.23200
C483        C  0.92197714  0.20029856  0.65439180     0.27200
C484        C  0.89333185  0.18854288  0.64652160    -0.20000
C485        C  0.89687928  0.16656861  0.62649815    -0.09600
C486        C  0.92925795  0.15619522  0.61375061    -0.10200
C487        C  0.95782429  0.16692495  0.62236465    -0.03100
C488        C  0.95430783  0.18881202  0.64239081    -0.18200
H489        H  0.98643925  0.30829522  0.73366369     0.10900
H490        H  0.97906253  0.25230903  0.72201173     0.10900
H491        H  0.90601121  0.29599711  0.66956527     0.10600
H492        H  0.91323475  0.35109037  0.68165695     0.11700
H493        H  0.96372482  0.22051800  0.68676852     0.11800
H494        H  0.89413139  0.24191623  0.67274552     0.13700
H495        H  0.86818757  0.19721112  0.65521361     0.10200
H496        H  0.87435072  0.15866186  0.62034729     0.12300
H497        H  0.98308881  0.15919368  0.61294414     0.08900
H498        H  0.97719432  0.19785517  0.64710636     0.11700
C499        C  0.96935307  0.43475680  0.75058282    -0.02900
C500        C  0.94187317  0.43642211  0.77406492    -0.05500
C501        C  0.93868194  0.46440845  0.78808827    -0.20600
C502        C  0.96263149  0.49122332  0.77858121     0.25100
C503        C  0.99152410  0.48805372  0.75674263    -0.18200
C504        C  0.99474068  0.46012831  0.74284455    -0.08100
C505        C  0.95635787  0.52236151  0.79137368    -0.18400
C506        C  0.96779682  0.55366292  0.77637150    -0.23200
C507        C  0.96125593  0.58465030  0.78939556     0.27200
C508        C  0.98506064  0.61160771  0.78031140    -0.20000
C509        C  0.98180780  0.63900785  0.79505534    -0.09600
C510        C  0.95448969  0.63983962  0.81886751    -0.10200
C511        C  0.92918162  0.61449381  0.82613112    -0.03100
C512        C  0.93234096  0.58728182  0.81140688    -0.18200
H513        H  0.92170405  0.41747181  0.78017432     0.10900
H514        H  0.91648236  0.46604728  0.80525200     0.10900
H515        H  0.01129496  0.50741184  0.74983713     0.10600
H516        H  0.01636762  0.45913981  0.72498900     0.11700
H517        H  0.94081869  0.51934627  0.81352707     0.11800
H518        H  0.98344635  0.55670587  0.75425363     0.13700
H519        H  0.00723571  0.61044791  0.76300210     0.10200
H520        H  0.00185046  0.65808314  0.78929041     0.12300
H521        H  0.90770733  0.61490351  0.84425256     0.08900
H522        H  0.91258498  0.56792119  0.81794018     0.11700
C523        C  0.66058371  0.00228444  0.87088814    -0.02900
C524        C  0.66528558  0.97705513  0.89507550    -0.05500
C525        C  0.69646171  0.97405903  0.90384888    -0.20600
C526        C  0.72316658  0.99685751  0.88913071     0.25100
C527        C  0.71889122  0.02132678  0.86408957    -0.18200
C528        C  0.68774646  0.02394045  0.85500630    -0.08100
C529        C  0.75423667  0.99515357  0.90162282    -0.18400
C530        C  0.77287951  0.02296126  0.90042897    -0.23200
C531        C  0.79962632  0.02293281  0.91806199     0.27200
C532        C  0.80942833  0.05420495  0.92317333    -0.20000
C533        C  0.83207227  0.05520539  0.94186010    -0.09600
C534        C  0.84547981  0.02490784  0.95578513    -0.10200
C535        C  0.83702096  0.99375727  0.94959750    -0.03100
C536        C  0.81449752  0.99274633  0.93082514    -0.18200
H537        H  0.64449127  0.96024138  0.90765147     0.10900
H538        H  0.69920696  0.95488961  0.92306565     0.10900
H539        H  0.73927601  0.03874760  0.85183095     0.10600
H540        H  0.68439025  0.04378970  0.83645338     0.11700
H541        H  0.75895402  0.97104502  0.91540830     0.11800
H542        H  0.76591073  0.04752102  0.88861238     0.13700
H543        H  0.79875964  0.07789778  0.91337779     0.10200
H544        H  0.83850449  0.07966889  0.94589954     0.12300
H545        H  0.84745337  0.97001335  0.45947690     0.08900
H546        H  0.80886311  0.96819125  0.92663370     0.11700
C547        C  0.63931909  0.00683530  0.81097312    -0.02900
C548        C  0.66007842  0.97800826  0.81011476    -0.05500
C549        C  0.68419487  0.97548823  0.78453102    -0.20600
C550        C  0.68853150  0.00198336  0.75936535     0.25100
C551        C  0.66684827  0.03037211  0.75992778    -0.18200
C552        C  0.64245782  0.03268308  0.78548616    -0.08100
C553        C  0.71576565  0.99888480  0.73310083    -0.18400
C554        C  0.73147506  0.02605911  0.71352158    -0.23200
C555        C  0.76010547  0.02426161  0.68778133     0.27200
C556        C  0.77235938  0.05495227  0.66849063    -0.20000
C557        C  0.79932630  0.05514593  0.64426318    -0.09600
C558        C  0.81496798  0.02458467  0.63859740    -0.10200
C559        C  0.80292935  0.99380423  0.65782573    -0.03100
C560        C  0.77585921  0.99356277  0.68210493    -0.18200
H561        H  0.65790898  0.95766962  0.82948998     0.10900
H562        H  0.70016085  0.95315304  0.78467523     0.10900
H563        H  0.66856695  0.05081695  0.74072442     0.10600
H564        H  0.62669416  0.05512497  0.78572320     0.11700
H565        H  0.72399692  0.97329131  0.73105293     0.11800
H566        H  0.72354623  0.05143254  0.71679372     0.13700
H567        H  0.76100331  0.07905077  0.67216920     0.10200
H568        H  0.80797528  0.07934468  0.62995919     0.12300
H569        H  0.81441389  0.96978034  0.65418549     0.08900
H570        H  0.76780461  0.96923863  0.69625037     0.11700
C571        C  0.09983090  0.05226321  0.93682375    -0.02900
C572        C  0.11234641  0.08332136  0.91841073    -0.05500
C573        C  0.14004608  0.08396736  0.89469532    -0.20600
C574        C  0.15608417  0.05366314  0.88863500     0.25100
C575        C  0.14354843  0.02249307  0.90716899    -0.18200
C576        C  0.11586071  0.02188981  0.93097236    -0.08100
C577        C  0.18431891  0.05601012  0.86192035    -0.18400
C578        C  0.20470476  0.02992163  0.85515149    -0.23200
C579        C  0.23074583  0.03182145  0.82697976     0.27200
C580        C  0.25347881  0.00454446  0.82428751    -0.20000
C581        C  0.27621834  0.00364421  0.79747756    -0.09600
C582        C  0.27662022  0.02996378  0.77269817    -0.10200
C583        C  0.25489562  0.05778862  0.77552776    -0.03100
C584        C  0.23213272  0.05871922  0.80220869    -0.18200
H585        H  0.10071365  0.10723441  0.92218134     0.10900
H586        H  0.14883066  0.10837959  0.88082963     0.10900
H587        H  0.15437747  0.99837618  0.90322375     0.10600
H588        H  0.10674344  0.99749401  0.94465893     0.11700
H589        H  0.18819538  0.08079874  0.84726855     0.11800
H590        H  0.20233539  0.00570689  0.87069890     0.13700
H591        H  0.25307006  0.98338310  0.84280247     0.10200
H592        H  0.29257790  0.98181509  0.79571674     0.12300
H593        H  0.25492289  0.07842236  0.75668090     0.08900
H594        H  0.21503442  0.08005763  0.80266690     0.11700
C595        C  0.24964477  0.03651735  0.71481998    -0.01900
C596        C  0.24272652  0.06078152  0.69082959    -0.05500
C597        C  0.21080296  0.06204444  0.68346003    -0.20600
C598        C  0.18492333  0.03886607  0.69995007     0.25100
C599        C  0.19150688  0.01544369  0.72474654    -0.18200
C600        C  0.22356476  0.01435606  0.73222260    -0.08100
C601        C  0.15267063  0.03585392  0.68969025    -0.18400
C602        C  0.14066058  0.06122757  0.67100660    -0.23200
C603        C  0.11267051  0.05729565  0.65554872     0.27200
C604        C  0.09875648  0.08696452  0.64113289    -0.20000
C605        C  0.07564399  0.08502780  0.62308569    -0.09600
C606        C  0.06610020  0.05329116  0.61872271    -0.10200
C607        C  0.07897932  0.02343656  0.63394453    -0.03100
C608        C  0.10209280  0.02535470  0.65214019    -0.18200
H609        H  0.26261001  0.07787551  0.67693472     0.10900
H610        H  0.20742250  0.07986584  0.66372226     0.10900
H611        H  0.17222018  0.99708944  0.73766831     0.10600
H612        H  0.22852494  0.99496453  0.75050054     0.11700
H613        H  0.13924079  0.01158157  0.69707276     0.11800
H614        H  0.15243700  0.08631499  0.66597699     0.13700
H615        H  0.10650454  0.11189587  0.64320003     0.10200
H616        H  0.06611956  0.10856259  0.61190333     0.12300
H617        H  0.07195616  0.99859808  0.63110964     0.08900
H618        H  0.11259150  0.00184749  0.66232457     0.11700
C619        C  0.35559515  0.01590753  0.75641892    -0.02900
C620        C  0.35654556  0.03792440  0.77595914    -0.05500
C621        C  0.38434686  0.03758507  0.78970688    -0.20600
C622        C  0.41189185  0.01569358  0.78379881     0.25100
C623        C  0.40984476  0.99222378  0.76567725    -0.18200
C624        C  0.38208424  0.99248055  0.75208929    -0.08100
C625        C  0.44254367  0.01882938  0.79619974    -0.18400
C626        C  0.47406439  0.00960798  0.78397756    -0.23200
C627        C  0.50460777  0.01510788  0.79569808     0.27200
C628        C  0.53199416  0.99242578  0.79288244    -0.20000
C629        C  0.55963212  0.99532497  0.80617519    -0.09600
C630        C  0.56040685  0.02130113  0.82210145    -0.10200
C631        C  0.53437674  0.04556204  0.82277128    -0.03100
C632        C  0.50681754  0.04259576  0.80968082    -0.18200
H633        H  0.33687284  0.05667051  0.77932078     0.10900
H634        H  0.38509955  0.05565509  0.80388186     0.10900
H635        H  0.42975768  0.97395281  0.76152752     0.10600
H636        H  0.38181858  0.97496461  0.73733907     0.11700
H637        H  0.43911363  0.03072101  0.81537773     0.11800
H638        H  0.47789186  0.99735397  0.76502147     0.13700
H639        H  0.53116347  0.97139515  0.78171408     0.10200
H640        H  0.57909630  0.97600061  0.80568472     0.12300
H641        H  0.53459072  0.06603663  0.83468913     0.08900
H642        H  0.48702503  0.06151372  0.81104531     0.11700
loop_ 
_geom_bond_atom_site_label_1 
_geom_bond_atom_site_label_2 
_geom_bond_distance 
_geom_bond_site_symmetry_2 
_ccdc_geom_bond_type 
N1            C5   1.360       .  A
N1            C2   1.363       .  A
N1          C261   1.444       .  S
C2            C3   1.385       .  A
C2          C298   1.484       .  S
C3            C4   1.371       .  A
C3            H6   1.082       .  S
C4            C5   1.381       .  A
C4            H7   1.082       .  S
C5          C274   1.481       .  S
N8           C12   1.358       .  A
N8            C9   1.360       .  A
N8          C226   1.444       .  S
C9           C10   1.385       .  A
C9          C309   1.480       .  S
C10          C11   1.371       .  A
C10          H13   1.083       .  S
C11          C12   1.380       .  A
C11          H14   1.082       .  S
C12         C202   1.473       .  S
N15          C19   1.356       .  A
N15          C16   1.357       .  A
N15         C130   1.441       .  S
C16          C17   1.385       .  A
C16         C178   1.477       .  S
C17          C18   1.372       .  A
C17          H20   1.082       .  S
C18          C19   1.380       .  A
C18          H21   1.082       .  S
C19         C154   1.472       .  S
N22          C26   1.357       .  A
N22          C23   1.356       .  A
N22         C117   1.440       .  S
C23          C24   1.383       .  A
C23         C189   1.475       .  S
C24          C25   1.372       .  A
C24          H27   1.082       .  S
C25          C26   1.382       .  A
C25          H28   1.082       .  S
C26          C82   1.476       .  S
C29          N47   1.353       .  A
C29          C66   1.463       .  S
C29         C285   1.483       .  S
N30          N47   1.326       .  A
N30          N52   1.319       .  A
N30         Co67   2.087       .  S
C31          N56   1.341       .  A
C31          C69   1.463       .  S
C31          H76   1.081       .  S
H32          C73   1.081       .  S
C33          N57   1.345   1_565  A
C33          C37   1.467   1_565  S
C33          H62   1.081       .  S
Co34         N52   2.088   1_655  S
Co34         N42   2.087       .  S
Co34        N395   2.094   1_654  S
Co34        N371   2.096   1_554  S
Co34        Cl78   2.454       .  S
N35          C73   1.340       .  A
N35          N42   1.319       .  A
N35         Co36   2.075       .  S
Co36         N39   2.096       .  S
Co36         N43   2.078       .  S
Co36        N377   2.091   1_554  S
Co36        Cl78   2.454       .  S
C37          N75   1.352       .  A
C37         C237   1.490       .  S
N38          N45   1.320       .  A
N38          N68   1.327       .  A
N38         Co71   2.094       .  S
N39          N57   1.320       .  A
N39          N75   1.326       .  A
N40          C69   1.354       .  A
N40          N50   1.327       .  A
H41          C66   1.081       .  S
N42          N63   1.323       .  A
N43          N61   1.319       .  A
N43         N369   1.324   1_554  A
C44          N48   1.350       .  A
C44         C213   1.478       .  S
C44         C393   1.463   1_545  S
N45          C60   1.341       .  A
N45         Co67   2.091   1_665  S
C46          N74   1.344       .  A
C46          C49   1.467       .  S
C46          H80   1.082       .  S
N48         N364   1.324       .  A
C49          N70   1.352       .  A
C49         C250   1.490       .  S
N50          N56   1.320       .  A
N50        Co355   2.097       .  S
N51         C398   1.339   1_654  A
N51          N53   1.320       .  A
N51         Co67   2.080   1_665  S
N52          C66   1.340       .  A
N53          N81   1.324   1_554  A
N53         Co71   2.089       .  S
H54          C77   1.081       .  S
H55         C393   1.081       .  S
N56        Co357   2.091       .  S
N57         Co71   2.097   1_545  S
N58          N70   1.327       .  A
N58          N74   1.320       .  A
N58        Co388   2.098       .  S
C59          N63   1.350       .  A
C59          C73   1.459       .  S
C59         C165   1.474       .  S
C60          C79   1.464       .  S
C60          H64   1.081   1_655  S
N61          C72   1.341   1_544  A
N61         Co71   2.088   1_545  S
C65         N402   1.351       .  A
C65          C77   1.460   1_655  S
C65          C93   1.476       .  S
Co67        N379   2.098       .  S
Co67        Cl78   2.454   1_455  S
N68          C79   1.353       .  A
C69         C141   1.486       .  S
Co71        Cl78   2.455   1_565  S
C72         C365   1.463   1_565  S
C72         H376   1.081       .  S
N74        Co355   2.094   1_455  S
C77         N372   1.339   1_455  A
C79         C106   1.487       .  S
N81         C386   1.351       .  A
C82          C83   1.403       .  A
C82          C87   1.401       .  A
C83          C84   1.399       .  A
C83          H96   1.082       .  S
C84          C85   1.405       .  A
C84          H97   1.084       .  S
C85          C86   1.408       .  A
C85          C88   1.486       .  S
C86          C87   1.394       .  A
C86          H98   1.080   1_655  S
C87          H99   1.084   1_655  S
C88          C89   1.346       .  D
C88         H100   1.085       .  S
C89          C90   1.485       .  S
C89         H101   1.085   1_655  S
C90          C91   1.403   1_655  A
C90          C95   1.409       .  A
C91          C92   1.396       .  A
C91         H102   1.084       .  S
C92          C93   1.404   1_455  A
C92         H424   1.082       .  S
C93          C94   1.403       .  A
C94          C95   1.397       .  A
C94         H104   1.084       .  S
C95         H105   1.080       .  S
H103        C413   1.082       .  S
C106        C107   1.405       .  A
C106        C111   1.406       .  A
C107        C108   1.401       .  A
C107        H120   1.083       .  S
C108        C109   1.406       .  A
C108        H121   1.084       .  S
C109        C110   1.410       .  A
C109        C112   1.496       .  S
C110        C111   1.401       .  A
C110        H122   1.080   1_655  S
C111        H123   1.081   1_655  S
C112        C113   1.351       .  D
C112        H124   1.086       .  S
C113        C114   1.490       .  S
C113        H125   1.083   1_655  S
C114        C115   1.405   1_655  A
C114        C119   1.409       .  A
C115        C116   1.399   1_455  A
C115        H126   1.083       .  S
C116        C117   1.402       .  A
C116        H127   1.083   1_655  S
C117        C118   1.403       .  A
C118        C119   1.401       .  A
C118        H128   1.083       .  S
C119        H129   1.082       .  S
C130        C131   1.403       .  A
C130        C135   1.402       .  A
C131        C132   1.399       .  A
C131        H144   1.083       .  S
C132        C133   1.405       .  A
C132        H145   1.083       .  S
C133        C134   1.409       .  A
C133        C136   1.491       .  S
C134        C135   1.401       .  A
C134        H146   1.082       .  S
C135        H147   1.082       .  S
C136        C137   1.351       .  D
C136        H148   1.083       .  S
C137        C138   1.497       .  S
C137        H149   1.086       .  S
C138        C139   1.407       .  A
C138        C143   1.410       .  A
C139        C140   1.401       .  A
C139        H150   1.084   1_655  S
C140        C141   1.403       .  A
C140        H151   1.083   1_655  S
C141        C142   1.406       .  A
C142        C143   1.402       .  A
C142        H152   1.082       .  S
C143        H153   1.080       .  S
C154        C155   1.402       .  A
C154        C159   1.400       .  A
C155        C156   1.398       .  A
C155        H168   1.083       .  S
C156        C157   1.405       .  A
C156        H169   1.084       .  S
C157        C158   1.409       .  A
C157        C160   1.484       .  S
C158        C159   1.394       .  A
C158        H170   1.080       .  S
C159        H171   1.084       .  S
C160        C161   1.346       .  D
C160        H172   1.085       .  S
C161        C162   1.484       .  S
C161        H173   1.085       .  S
C162        C163   1.404       .  A
C162        C167   1.409       .  A
C163        C164   1.397       .  A
C163        H174   1.084       .  S
C164        C165   1.404       .  A
C164        H175   1.082       .  S
C165        C166   1.402       .  A
C166        C167   1.395       .  A
C166        H176   1.084       .  S
C167        H177   1.081       .  S
C178        C179   1.403       .  A
C178        C183   1.404       .  A
C179        C180   1.400       .  A
C179        H192   1.082       .  S
C180        C181   1.405       .  A
C180        H193   1.083       .  S
C181        C182   1.405       .  A
C181        C184   1.483       .  S
C182        C183   1.394       .  A
C182        H194   1.082   1_655  S
C183        H195   1.083   1_655  S
C184        C185   1.351       .  D
C184        H196   1.085       .  S
C185        C186   1.484       .  S
C185        H197   1.085       .  S
C186        C187   1.405       .  A
C186        C191   1.405       .  A
C187        C188   1.400       .  A
C187        H198   1.083   1_655  S
C188        C189   1.403       .  A
C188        H199   1.083   1_655  S
C189        C190   1.402       .  A
C190        C191   1.393       .  A
C190        H200   1.084       .  S
C191        H201   1.081       .  S
C202        C203   1.401   1_545  A
C202        C207   1.402       .  A
C203        C204   1.394       .  A
C203        H216   1.083       .  S
C204        C205   1.403       .  A
C204        H217   1.083       .  S
C205        C206   1.408   1_565  A
C205        C208   1.482       .  S
C206        C207   1.400       .  A
C206        H218   1.082       .  S
C207        H219   1.083       .  S
C208        C209   1.348   1_565  D
C208        H220   1.083       .  S
C209        C210   1.489       .  S
C209        H221   1.086       .  S
C210        C211   1.404       .  A
C210        C215   1.409   1_545  A
C211        C212   1.398       .  A
C211        H222   1.083       .  S
C212        C213   1.404       .  A
C212        H223   1.083       .  S
C213        C214   1.403   1_545  A
C214        C215   1.397       .  A
C214        H545   1.081       .  S
C215        H225   1.080       .  S
H224        C535   1.081       .  S
C226        C227   1.404   1_545  A
C226        C231   1.403       .  A
C227        C228   1.400       .  A
C227        H240   1.083       .  S
C228        C229   1.406   1_565  A
C228        H241   1.083       .  S
C229        C230   1.410       .  A
C229        C232   1.496   1_545  S
C230        C231   1.403       .  A
C230        H242   1.081       .  S
C231        H243   1.083       .  S
C232        C233   1.353   1_565  D
C232        H244   1.082       .  S
C233        C234   1.501       .  S
C233        H245   1.085       .  S
C234        C235   1.407       .  A
C234        C239   1.412   1_545  A
C235        C236   1.401       .  A
C235        H246   1.083       .  S
C236        C237   1.405       .  A
C236        H247   1.083       .  S
C237        C238   1.406   1_545  A
C238        C239   1.405       .  A
C238        H248   1.082       .  S
C239        H249   1.079       .  S
C250        C251   1.405       .  A
C250        C255   1.407       .  A
C251        C252   1.402       .  A
C251        H264   1.082       .  S
C252        C253   1.407       .  A
C252        H265   1.083       .  S
C253        C254   1.410       .  A
C253        C256   1.499       .  S
C254        C255   1.404       .  A
C254        H266   1.080   1_545  S
C255        H267   1.083   1_545  S
C256        C257   1.354       .  D
C256        H268   1.083       .  S
C257        C258   1.500       .  S
C257        H269   1.083       .  S
C258        C259   1.409       .  A
C258        C263   1.411       .  A
C259        C260   1.403       .  A
C259        H270   1.083   1_545  S
C260        C261   1.402       .  A
C260        H271   1.082   1_545  S
C261        C262   1.403       .  A
C262        C263   1.399       .  A
C262        H272   1.082       .  S
C263        H273   1.079       .  S
C274        C275   1.401       .  A
C274        C279   1.403       .  A
C275        C276   1.395       .  A
C275        H288   1.083       .  S
C276        C277   1.409       .  A
C276        H289   1.081       .  S
C277        C278   1.407       .  A
C277        C280   1.492       .  S
C278        C279   1.403       .  A
C278        H290   1.083   1_545  S
C279        H291   1.083   1_545  S
C280        C281   1.349       .  D
C280        H292   1.084       .  S
C281        C282   1.490       .  S
C281        H293   1.085       .  S
C282        C283   1.404       .  A
C282        C287   1.410       .  A
C283        C284   1.397       .  A
C283        H294   1.083       .  S
C284        C285   1.404       .  A
C284        H295   1.081       .  S
C285        C286   1.405       .  A
C286        C287   1.402       .  A
C286        H296   1.083   1_545  S
C287        H297   1.081       .  S
C298        C299   1.403       .  A
C298        C303   1.406   1_545  A
C299        C300   1.402       .  A
C299        H312   1.082       .  S
C300        C301   1.407       .  A
C300        H313   1.083       .  S
C301        C302   1.405   1_545  A
C301        C304   1.489       .  S
C302        C303   1.396       .  A
C302        H314   1.081       .  S
C303        H315   1.083       .  S
C304        C305   1.352       .  D
C304        H316   1.085       .  S
C305        C306   1.487       .  S
C305        H317   1.084   1_545  S
C306        C307   1.406   1_545  A
C306        C311   1.405       .  A
C307        C308   1.403       .  A
C307        H318   1.083       .  S
C308        C309   1.404   1_565  A
C308        H319   1.082       .  S
C309        C310   1.404       .  A
C310        C311   1.395       .  A
C310        H320   1.084       .  S
C311        H321   1.082       .  S
N322        C326   1.360       .  A
N322        C323   1.363       .  A
N322        C582   1.444       .  S
C323        C324   1.385       .  A
C323        C619   1.484       .  S
C324        C325   1.371       .  A
C324        H327   1.082       .  S
C325        C326   1.381       .  A
C325        H328   1.082       .  S
C326        C595   1.481       .  S
N329        C333   1.358       .  A
N329        C330   1.360       .  A
N329        C547   1.444       .  S
C330        C331   1.385       .  A
C330        C630   1.480       .  S
C331        C332   1.371       .  A
C331        H334   1.083       .  S
C332        C333   1.380       .  A
C332        H335   1.082       .  S
C333        C523   1.473       .  S
N336        C340   1.356       .  A
N336        C337   1.357       .  A
N336        C451   1.441       .  S
C337        C338   1.385       .  A
C337        C499   1.477       .  S
C338        C339   1.372       .  A
C338        H341   1.082       .  S
C339        C340   1.380       .  A
C339        H342   1.082       .  S
C340        C475   1.472       .  S
N343        C347   1.357       .  A
N343        C344   1.356       .  A
N343        C438   1.440       .  S
C344        C345   1.383       .  A
C344        C510   1.475       .  S
C345        C346   1.372       .  A
C345        H348   1.082       .  S
C346        C347   1.382       .  A
C346        H349   1.082       .  S
C347        C403   1.476       .  S
C350        N368   1.353       .  A
C350        C387   1.462       .  S
C350        C606   1.483       .  S
N351        N368   1.326       .  A
N351        N373   1.319       .  A
N351       Co388   2.088       .  S
C352        N377   1.341       .  A
C352        C390   1.463       .  S
C352        H397   1.081       .  S
H353        C394   1.081       .  S
C354        N378   1.345   1_565  A
C354        C358   1.467   1_565  S
C354        H383   1.081       .  S
Co355       N373   2.088   1_655  S
Co355       N363   2.087       .  S
Co355      Cl399   2.454       .  S
N356        C394   1.340       .  A
N356        N363   1.319       .  A
N356       Co357   2.075       .  S
Co357       N360   2.096       .  S
Co357       N364   2.078       .  S
Co357      Cl399   2.454       .  S
C358        N396   1.352       .  A
C358        C558   1.490       .  S
N359        N366   1.320       .  A
N359        N389   1.327       .  A
N359       Co392   2.094       .  S
N360        N378   1.320       .  A
N360        N396   1.326       .  A
N361        C390   1.354       .  A
N361        N371   1.327       .  A
H362        C387   1.081       .  S
N363        N384   1.323       .  A
N364        N382   1.319       .  A
C365        N369   1.350       .  A
C365        C534   1.478       .  S
N366        C381   1.341       .  A
N366       Co388   2.091   1_665  S
C367        N395   1.344       .  A
C367        C370   1.467       .  S
C367        H401   1.082       .  S
C370        N391   1.352       .  A
C370        C571   1.490       .  S
N371        N377   1.320       .  A
N372        N374   1.320       .  A
N372       Co388   2.080   1_665  S
N373        C387   1.340       .  A
N374        N402   1.324       .  A
N374       Co392   2.089       .  S
H375        C398   1.081       .  S
N378       Co392   2.097   1_545  S
N379        N391   1.327   1_554  A
N379        N395   1.320   1_554  A
C380        N384   1.350       .  A
C380        C394   1.459       .  S
C380        C486   1.474       .  S
C381        C400   1.464       .  S
C381        H385   1.081   1_655  S
N382        C393   1.341   1_545  A
N382       Co392   2.089   1_545  S
C386        C398   1.460   1_655  S
C386        C414   1.476       .  S
Co388      Cl399   2.454   1_455  S
N389        C400   1.353       .  A
C390        C462   1.486       .  S
Co392      Cl399   2.455   1_565  S
C400        C427   1.487       .  S
C403        C404   1.403       .  A
C403        C408   1.401       .  A
C404        C405   1.399       .  A
C404        H417   1.082       .  S
C405        C406   1.405       .  A
C405        H418   1.084       .  S
C406        C407   1.408       .  A
C406        C409   1.486       .  S
C407        C408   1.394       .  A
C407        H419   1.080   1_655  S
C408        H420   1.084   1_655  S
C409        C410   1.347       .  D
C409        H421   1.085       .  S
C410        C411   1.485       .  S
C410        H422   1.085   1_655  S
C411        C412   1.403   1_655  A
C411        C416   1.409       .  A
C412        C413   1.396       .  A
C412        H423   1.084       .  S
C413        C414   1.404   1_455  A
C414        C415   1.403       .  A
C415        C416   1.397       .  A
C415        H425   1.084       .  S
C416        H426   1.080       .  S
C427        C428   1.405       .  A
C427        C432   1.406       .  A
C428        C429   1.401       .  A
C428        H441   1.083       .  S
C429        C430   1.406       .  A
C429        H442   1.084       .  S
C430        C431   1.410       .  A
C430        C433   1.497       .  S
C431        C432   1.401       .  A
C431        H443   1.080   1_655  S
C432        H444   1.081   1_655  S
C433        C434   1.351       .  D
C433        H445   1.086       .  S
C434        C435   1.490       .  S
C434        H446   1.083   1_655  S
C435        C436   1.405   1_655  A
C435        C440   1.409       .  A
C436        C437   1.399   1_455  A
C436        H447   1.083       .  S
C437        C438   1.402       .  A
C437        H448   1.083   1_655  S
C438        C439   1.403       .  A
C439        C440   1.401       .  A
C439        H449   1.083       .  S
C440        H450   1.082       .  S
C451        C452   1.403       .  A
C451        C456   1.402       .  A
C452        C453   1.399       .  A
C452        H465   1.083       .  S
C453        C454   1.405       .  A
C453        H466   1.083       .  S
C454        C455   1.409       .  A
C454        C457   1.491       .  S
C455        C456   1.401       .  A
C455        H467   1.082       .  S
C456        H468   1.082       .  S
C457        C458   1.351       .  D
C457        H469   1.083       .  S
C458        C459   1.497       .  S
C458        H470   1.086       .  S
C459        C460   1.407       .  A
C459        C464   1.410       .  A
C460        C461   1.401       .  A
C460        H471   1.084   1_655  S
C461        C462   1.403       .  A
C461        H472   1.083   1_655  S
C462        C463   1.406       .  A
C463        C464   1.402       .  A
C463        H473   1.082       .  S
C464        H474   1.080       .  S
C475        C476   1.402       .  A
C475        C480   1.400       .  A
C476        C477   1.398       .  A
C476        H489   1.083       .  S
C477        C478   1.405       .  A
C477        H490   1.084       .  S
C478        C479   1.409       .  A
C478        C481   1.484       .  S
C479        C480   1.394       .  A
C479        H491   1.080       .  S
C480        H492   1.084       .  S
C481        C482   1.346       .  D
C481        H493   1.085       .  S
C482        C483   1.484       .  S
C482        H494   1.085       .  S
C483        C484   1.404       .  A
C483        C488   1.409       .  A
C484        C485   1.397       .  A
C484        H495   1.084       .  S
C485        C486   1.404       .  A
C485        H496   1.082       .  S
C486        C487   1.402       .  A
C487        C488   1.395       .  A
C487        H497   1.084       .  S
C488        H498   1.081       .  S
C499        C500   1.403       .  A
C499        C504   1.404       .  A
C500        C501   1.400       .  A
C500        H513   1.082       .  S
C501        C502   1.405       .  A
C501        H514   1.083       .  S
C502        C503   1.405       .  A
C502        C505   1.483       .  S
C503        C504   1.394       .  A
C503        H515   1.082   1_655  S
C504        H516   1.083   1_655  S
C505        C506   1.351       .  D
C505        H517   1.085       .  S
C506        C507   1.484       .  S
C506        H518   1.085       .  S
C507        C508   1.405       .  A
C507        C512   1.405       .  A
C508        C509   1.400       .  A
C508        H519   1.083   1_655  S
C509        C510   1.403       .  A
C509        H520   1.083   1_655  S
C510        C511   1.402       .  A
C511        C512   1.393       .  A
C511        H521   1.084       .  S
C512        H522   1.081       .  S
C523        C524   1.401   1_545  A
C523        C528   1.402       .  A
C524        C525   1.394       .  A
C524        H537   1.083       .  S
C525        C526   1.403       .  A
C525        H538   1.083       .  S
C526        C527   1.408   1_565  A
C526        C529   1.482       .  S
C527        C528   1.400       .  A
C527        H539   1.082       .  S
C528        H540   1.083       .  S
C529        C530   1.347   1_565  D
C529        H541   1.083       .  S
C530        C531   1.489       .  S
C530        H542   1.086       .  S
C531        C532   1.404       .  A
C531        C536   1.409   1_545  A
C532        C533   1.398       .  A
C532        H543   1.083       .  S
C533        C534   1.404       .  A
C533        H544   1.083       .  S
C534        C535   1.403   1_545  A
C535        C536   1.397       .  A
C536        H546   1.080       .  S
C547        C548   1.404   1_545  A
C547        C552   1.403       .  A
C548        C549   1.400       .  A
C548        H561   1.083       .  S
C549        C550   1.406   1_565  A
C549        H562   1.083       .  S
C550        C551   1.410       .  A
C550        C553   1.496   1_545  S
C551        C552   1.403       .  A
C551        H563   1.081       .  S
C552        H564   1.083       .  S
C553        C554   1.353   1_565  D
C553        H565   1.082       .  S
C554        C555   1.501       .  S
C554        H566   1.085       .  S
C555        C556   1.407       .  A
C555        C560   1.412   1_545  A
C556        C557   1.401       .  A
C556        H567   1.083       .  S
C557        C558   1.405       .  A
C557        H568   1.083       .  S
C558        C559   1.406   1_545  A
C559        C560   1.405       .  A
C559        H569   1.082       .  S
C560        H570   1.079       .  S
C571        C572   1.405       .  A
C571        C576   1.407       .  A
C572        C573   1.401       .  A
C572        H585   1.082       .  S
C573        C574   1.407       .  A
C573        H586   1.083       .  S
C574        C575   1.410       .  A
C574        C577   1.500       .  S
C575        C576   1.404       .  A
C575        H587   1.080   1_545  S
C576        H588   1.083   1_545  S
C577        C578   1.354       .  D
C577        H589   1.083       .  S
C578        C579   1.500       .  S
C578        H590   1.083       .  S
C579        C580   1.409       .  A
C579        C584   1.411       .  A
C580        C581   1.403       .  A
C580        H591   1.083   1_545  S
C581        C582   1.402       .  A
C581        H592   1.082   1_545  S
C582        C583   1.403       .  A
C583        C584   1.399       .  A
C583        H593   1.082       .  S
C584        H594   1.079       .  S
C595        C596   1.401       .  A
C595        C600   1.403       .  A
C596        C597   1.395       .  A
C596        H609   1.083       .  S
C597        C598   1.409       .  A
C597        H610   1.081       .  S
C598        C599   1.407       .  A
C598        C601   1.492       .  S
C599        C600   1.403       .  A
C599        H611   1.083   1_545  S
C600        H612   1.083   1_545  S
C601        C602   1.349       .  D
C601        H613   1.084       .  S
C602        C603   1.490       .  S
C602        H614   1.085       .  S
C603        C604   1.404       .  A
C603        C608   1.410       .  A
C604        C605   1.397       .  A
C604        H615   1.083       .  S
C605        C606   1.404       .  A
C605        H616   1.081       .  S
C606        C607   1.405       .  A
C607        C608   1.402       .  A
C607        H617   1.083   1_545  S
C608        H618   1.081       .  S
C619        C620   1.403       .  A
C619        C624   1.406   1_545  A
C620        C621   1.402       .  A
C620        H633   1.082       .  S
C621        C622   1.407       .  A
C621        H634   1.083       .  S
C622        C623   1.405   1_545  A
C622        C625   1.489       .  S
C623        C624   1.396       .  A
C623        H635   1.081       .  S
C624        H636   1.083       .  S
C625        C626   1.352       .  D
C625        H637   1.085       .  S
C626        C627   1.487       .  S
C626        H638   1.084   1_545  S
C627        C628   1.406   1_545  A
C627        C632   1.405       .  A
C628        C629   1.403       .  A
C628        H639   1.083       .  S
C629        C630   1.404   1_565  A
C629        H640   1.082       .  S
C630        C631   1.404       .  A
C631        C632   1.395       .  A
C631        H641   1.084       .  S
C632        H642   1.082       .  S
