geometry optimzed in LAMMPS
_audit_creation_date              2020-11-30 
_audit_creation_method            'lammps2cif' 
_symmetry_space_group_name_H-M    'P1' 
_symmetry_Int_Tables_number       1 
_symmetry_cell_setting            triclinic 
loop_ 
_symmetry_equiv_pos_as_xyz 
  x,y,z 
_cell_length_a                    26.70394047 
_cell_length_b                    26.535968647937285 
_cell_length_c                    44.17073278380424 
_cell_angle_alpha                 89.25792202176116 
_cell_angle_beta                  90.3404430128084 
_cell_angle_gamma                 120.08653482512578 
loop_ 
_atom_site_label 
_atom_site_type_symbol 
_atom_site_fract_x 
_atom_site_fract_y 
_atom_site_fract_z 
_atom_site_charge 
N1          N  0.51671543  0.76446010  0.09884813    -0.36100
N2          N  0.53133396  0.69484671  0.14510670    -0.56700
N3          N  0.51600312  0.76276400  0.19189171    -0.36100
N4          N  0.50085600  0.83217263  0.14581566    -0.56700
C5          C  0.54457035  0.74174156  0.08373159     0.27400
C6          C  0.52664544  0.81244639  0.08307257     0.27400
C7          C  0.51128272  0.71763108  0.20886584     0.27400
C8          C  0.49795267  0.79236329  0.20940374     0.27400
C9          C  0.53241584  0.66589596  0.12035235     0.36100
C10         C  0.53096671  0.66322254  0.16939419     0.36100
C11         C  0.49708013  0.86074186  0.12092811     0.36100
C12         C  0.50041910  0.86216230  0.17052504     0.36100
C13         C  0.57370351  0.77639876  0.05893885    -0.21400
C14         C  0.56214879  0.82084541  0.05839175    -0.21400
C15         C  0.48976852  0.71906618  0.23719982    -0.21400
C16         C  0.48175217  0.76556547  0.23753253    -0.21400
C17         C  0.53135352  0.61509775  0.12896610    -0.22500
C18         C  0.53036203  0.61338455  0.15997898    -0.22500
C19         C  0.49399390  0.90882100  0.13017735    -0.22500
C20         C  0.49669673  0.90999133  0.16121625    -0.22500
C21         C  0.54145205  0.68847872  0.09047327    -0.17800
C22         C  0.50531284  0.84970393  0.09016362    -0.17800
C23         C  0.49799581  0.84424418  0.20131966    -0.17800
C24         C  0.52699737  0.67608520  0.19994682    -0.17800
H25         H  0.60043421  0.77021724  0.04279459     0.15100
H26         H  0.57906891  0.85601367  0.04187789     0.15100
H27         H  0.48063552  0.69118232  0.25674059     0.15100
H28         H  0.46652069  0.77745369  0.25721435     0.15100
H29         H  0.53262505  0.58332677  0.11446680     0.13400
H30         H  0.52729647  0.57841896  0.17406503     0.13400
H31         H  0.49321145  0.94194649  0.11610620     0.13400
H32         H  0.49548914  0.94234757  0.17521624     0.13400
H33         H  0.48798196  0.74535615  0.11687475     0.26600
H34         H  0.53610430  0.77606075  0.17092896     0.26600
N35         N  0.51355147  0.76770461  0.42577310    -0.36100
N36         N  0.52825486  0.69879529  0.37999389    -0.56700
N37         N  0.53069276  0.77599695  0.33214090    -0.36100
N38         N  0.51362160  0.84422868  0.37811945    -0.56700
C39         C  0.54104434  0.74446576  0.44101930     0.27400
C40         C  0.52519681  0.81594987  0.44087600     0.27400
C41         C  0.54754676  0.74225362  0.31676345     0.27400
C42         C  0.54644098  0.82643613  0.31599519     0.27400
C43         C  0.52421905  0.66784410  0.40536553     0.36100
C44         C  0.52704826  0.66606156  0.35653389     0.36100
C45         C  0.49728125  0.86421724  0.40220169     0.36100
C46         C  0.51427903  0.87556354  0.35334512     0.36100
C47         C  0.57160679  0.77888644  0.46530575    -0.21400
C48         C  0.56134924  0.82415550  0.46532383    -0.21400
C49         C  0.57515411  0.77243134  0.29049378    -0.21400
C50         C  0.57424245  0.82465641  0.28994884    -0.21400
C51         C  0.52026501  0.61565165  0.39807199    -0.22500
C52         C  0.52316857  0.61486050  0.36737463    -0.22500
C53         C  0.48771369  0.90840953  0.39259661    -0.22500
C54         C  0.49895402  0.91607191  0.36207696    -0.22500
C55         C  0.53595787  0.69089903  0.43472310    -0.17800
C56         C  0.50367412  0.85263331  0.43325961    -0.17800
C57         C  0.53335430  0.87196033  0.32357077    -0.17800
C58         C  0.53695445  0.68457130  0.32588573    -0.17800
H59         H  0.59830021  0.77197606  0.48144020     0.15100
H60         H  0.57925878  0.85950898  0.48131139     0.15100
H61         H  0.59385205  0.75830529  0.27324371     0.15100
H62         H  0.59160448  0.85729433  0.27209712     0.15100
H63         H  0.52046286  0.58368928  0.41339465     0.13400
H64         H  0.52624117  0.58174514  0.35499522     0.13400
H65         H  0.47972140  0.93649551  0.40671384     0.13400
H66         H  0.49925291  0.95028922  0.34844862     0.13400
H67         H  0.48411106  0.74903556  0.40805140     0.26600
H68         H  0.50417101  0.76216070  0.35110732     0.26600
N69         N  0.74713637  0.23113105  0.42466886    -0.36100
N70         N  0.83003045  0.30233780  0.37874095    -0.56700
N71         N  0.74761977  0.23545923  0.33125685    -0.36100
N72         N  0.66380524  0.16476765  0.37729569    -0.56700
C73         C  0.79764273  0.25357970  0.43993463     0.27400
C74         C  0.70983345  0.18224235  0.43984596     0.27400
C75         C  0.78628294  0.28409579  0.31564156     0.27400
C76         C  0.69837959  0.20777107  0.31436019     0.27400
C77         C  0.86091537  0.32982810  0.40369571     0.36100
C78         C  0.86232177  0.33354099  0.35470575     0.36100
C79         C  0.63137775  0.13663274  0.40206187     0.36100
C80         C  0.63228478  0.13565070  0.35263605     0.36100
C81         C  0.79287539  0.21793283  0.46424087    -0.21400
C82         C  0.73729371  0.17291253  0.46427272    -0.21400
C83         C  0.76080948  0.28784945  0.28906989    -0.21400
C84         C  0.70622272  0.24011030  0.28803239    -0.21400
C85         C  0.91197215  0.37900599  0.39533796    -0.22500
C86         C  0.91320924  0.38059923  0.36441183    -0.22500
C87         C  0.57904643  0.09029582  0.39291147    -0.22500
C88         C  0.57982736  0.08919964  0.36197892    -0.22500
C89         C  0.84725318  0.30702454  0.43354509    -0.17800
C90         C  0.65135755  0.14564473  0.43261796    -0.17800
C91         C  0.64740094  0.15371601  0.32191092    -0.17800
C92         C  0.84426937  0.32482781  0.32425753    -0.17800
H93         H  0.82604416  0.22377020  0.48033222     0.15100
H94         H  0.71943267  0.13693447  0.48031142     0.15100
H95         H  0.77886045  0.32180078  0.27210401     0.15100
H96         H  0.67650040  0.23208123  0.26966248     0.15100
H97         H  0.94527558  0.41010228  0.40998597     0.13400
H98         H  0.94593820  0.41432063  0.35041165     0.13400
H99         H  0.54500199  0.05794583  0.40703534     0.13400
H100        H  0.54484918  0.05776237  0.34826539     0.13400
H101        H  0.73700745  0.25091431  0.40699086     0.26600
H102        H  0.75637077  0.21897370  0.35085433     0.26600
N103        N  0.74568328  0.22446564  0.09707367    -0.36100
N104        N  0.66502956  0.14959513  0.14316037    -0.56700
N105        N  0.74642931  0.21710580  0.19034807    -0.36100
N106        N  0.82854491  0.29060282  0.14410786    -0.56700
C107        C  0.70890287  0.17747315  0.08110550     0.27400
C108        C  0.79660131  0.24784819  0.08237590     0.27400
C109        C  0.70854087  0.16938300  0.20709404     0.27400
C110        C  0.79364263  0.25147336  0.20772000     0.27400
C111        C  0.63058669  0.12948539  0.11837285     0.36100
C112        C  0.63232437  0.11887658  0.16730194     0.36100
C113        C  0.85692128  0.32211518  0.11925522     0.36100
C114        C  0.85724520  0.32344324  0.16822774     0.36100
C115        C  0.73690163  0.17021746  0.05658924    -0.21400
C116        C  0.79266181  0.21470926  0.05752356    -0.21400
C117        C  0.73254889  0.17374939  0.23555420    -0.21400
C118        C  0.78581994  0.22505652  0.23589176    -0.21400
C119        C  0.57623204  0.08548961  0.12684030    -0.22500
C120        C  0.57741704  0.07828186  0.15751760    -0.22500
C121        C  0.90425742  0.37428834  0.12758645    -0.22500
C122        C  0.90443798  0.37541628  0.15853234    -0.22500
C123        C  0.65045633  0.14115798  0.08792030    -0.17800
C124        C  0.84504383  0.30102565  0.08939689    -0.17800
C125        C  0.84294708  0.30644730  0.19887020    -0.17800
C126        C  0.65165571  0.12430571  0.19784144    -0.17800
H127        H  0.71926827  0.13610143  0.03989538     0.15100
H128        H  0.82630133  0.22220261  0.04151243     0.15100
H129        H  0.71356867  0.14341083  0.25431877     0.15100
H130        H  0.81574608  0.24091163  0.25471697     0.15100
H131        H  0.54118334  0.05764177  0.11201478     0.13400
H132        H  0.54243161  0.04494912  0.17079781     0.13400
H133        H  0.93676734  0.40689759  0.11284334     0.13400
H134        H  0.93684690  0.40996857  0.17218584     0.13400
H135        H  0.73496164  0.24282120  0.11483646     0.26600
H136        H  0.73810049  0.22926204  0.16944631     0.26600
N137        N  0.55674607  0.99577808  0.05602049    -0.36100
N138        N  0.50594046  0.90878212  0.01150546    -0.56700
N139        N  0.55560319  0.99852546  0.46547251    -0.36100
N140        N  0.59397734  0.08533248  0.01029739    -0.56700
C141        C  0.55611346  0.94918164  0.06878115     0.27400
C142        C  0.60280584  0.04246379  0.06783740     0.27400
C143        C  0.55409948  0.95171917  0.45321961     0.27400
C144        C  0.60153256  0.04512621  0.45285921     0.27400
C145        C  0.48552638  0.87384664  0.03632662     0.36100
C146        C  0.48439578  0.87515257  0.48674688     0.36100
C147        C  0.60716147  0.11891822  0.03500268     0.36100
C148        C  0.60763173  0.12046335  0.48571943     0.36100
C149        C  0.60330662  0.96620726  0.08777234    -0.21400
C150        C  0.63296310  0.02552693  0.08721153    -0.21400
C151        C  0.60067228  0.96861767  0.43377397    -0.21400
C152        C  0.63066438  0.02793132  0.43348412    -0.21400
C153        C  0.44830137  0.81712644  0.02735002    -0.22500
C154        C  0.44758730  0.81793084  0.49590749    -0.22500
C155        C  0.62684222  0.17617826  0.02615467    -0.22500
C156        C  0.62723550  0.17716490  0.49479691    -0.22500
C157        C  0.51105828  0.89194835  0.06547402    -0.17800
C158        C  0.61454416  0.09968620  0.06385965    -0.17800
C159        C  0.61482152  0.10271467  0.45672465    -0.17800
C160        C  0.50901527  0.89437268  0.45735894    -0.17800
H161        H  0.61432357  0.93875582  0.10121994     0.15100
H162        H  0.67148044  0.05307499  0.10020057     0.15100
H163        H  0.61133087  0.94108003  0.42067253     0.15100
H164        H  0.66889311  0.05530862  0.42010790     0.15100
H165        H  0.42762011  0.77869018  0.04172407     0.13400
H166        H  0.42625328  0.78015569  0.48155481     0.13400
H167        H  0.64392357  0.21384334  0.04061561     0.13400
H168        H  0.64450388  0.21570517  0.48050622     0.13400
H169        H  0.52380429  0.99585334  0.04314466     0.26600
H170        H  0.52338286  0.99862248  0.47873811     0.26600
N171        N  0.76628292  0.52518205  0.42311846    -0.36100
N172        N  0.69856787  0.53952836  0.37470664    -0.56700
N173        N  0.76529563  0.51957709  0.33026161    -0.36100
N174        N  0.83128505  0.50270427  0.37887618    -0.56700
C175        C  0.74436451  0.55535510  0.43657065     0.27400
C176        C  0.81280991  0.53467199  0.43972168     0.27400
C177        C  0.72052913  0.51302949  0.31251120     0.27400
C178        C  0.79479929  0.49878895  0.31473362     0.27400
C179        C  0.66967642  0.54188276  0.39923318     0.36100
C180        C  0.66752458  0.53839302  0.35011435     0.36100
C181        C  0.85919447  0.49966587  0.40398014     0.36100
C182        C  0.86234289  0.50239753  0.35478400     0.36100
C183        C  0.77817456  0.58560188  0.46113905    -0.21400
C184        C  0.82104760  0.57208429  0.46333556    -0.21400
C185        C  0.72161129  0.48638802  0.28580449    -0.21400
C186        C  0.76837237  0.47802002  0.28716714    -0.21400
C187        C  0.61938653  0.54065076  0.39020353    -0.22500
C188        C  0.61832615  0.53915734  0.35926145    -0.22500
C189        C  0.90691781  0.49555534  0.39543603    -0.22500
C190        C  0.90997098  0.49940833  0.36451255    -0.22500
C191        C  0.69144213  0.55171842  0.42920519    -0.17800
C192        C  0.84929174  0.51186943  0.43398296    -0.17800
C193        C  0.84660935  0.50063313  0.32405172    -0.17800
C194        C  0.67953621  0.53106718  0.31973156    -0.17800
H195        H  0.77200474  0.61382670  0.47625175     0.15100
H196        H  0.85505587  0.58889425  0.48016790     0.15100
H197        H  0.69225662  0.47329362  0.26687840     0.15100
H198        H  0.78100319  0.45825233  0.26979588     0.15100
H199        H  0.58714741  0.54196802  0.40427795     0.13400
H200        H  0.58361914  0.53626658  0.34533592     0.13400
H201        H  0.93902884  0.49431293  0.40988323     0.13400
H202        H  0.94350174  0.49993242  0.35070751     0.13400
H203        H  0.74702280  0.49514757  0.40576680     0.26600
H204        H  0.77917518  0.54269993  0.35033508     0.26600
N205        N  0.77114277  0.52740007  0.09548278    -0.36100
N206        N  0.69715462  0.53802755  0.13994626    -0.56700
N207        N  0.76570679  0.53305529  0.18878711    -0.36100
N208        N  0.84045397  0.52235196  0.14392156    -0.56700
C209        C  0.74891254  0.55508784  0.07953973     0.27400
C210        C  0.81989370  0.53877749  0.08101858     0.27400
C211        C  0.73184285  0.54955919  0.20395846     0.27400
C212        C  0.81304637  0.54593633  0.20610937     0.27400
C213        C  0.66957958  0.53696785  0.11401210     0.36100
C214        C  0.66249643  0.53580906  0.16272112     0.36100
C215        C  0.86365271  0.50807430  0.12055641     0.36100
C216        C  0.86709946  0.51909230  0.16945305     0.36100
C217        C  0.78443844  0.58545496  0.05526819    -0.21400
C218        C  0.82944620  0.57494131  0.05614075    -0.21400
C219        C  0.75859512  0.57350493  0.23129183    -0.21400
C220        C  0.80938369  0.57118012  0.23261053    -0.21400
C221        C  0.61766906  0.53395660  0.12040931    -0.22500
C222        C  0.61408735  0.53504697  0.15102304    -0.22500
C223        C  0.90543036  0.49633372  0.13140372    -0.22500
C224        C  0.90784125  0.50344269  0.16216420    -0.22500
C225        C  0.69522849  0.54998919  0.08507365    -0.17800
C226        C  0.85525410  0.51615990  0.08941771    -0.17800
C227        C  0.85807518  0.53333233  0.19906016    -0.17800
C228        C  0.67704811  0.54193758  0.19369553    -0.17800
H229        H  0.77827269  0.61194744  0.03849553     0.15100
H230        H  0.86529660  0.59230238  0.04037733     0.15100
H231        H  0.74356034  0.59098081  0.24870639     0.15100
H232        H  0.84010025  0.58624767  0.25110826     0.15100
H233        H  0.58726862  0.53522250  0.10465418     0.13400
H234        H  0.58081675  0.53806672  0.16298872     0.13400
H235        H  0.93498179  0.48895704  0.11827156     0.13400
H236        H  0.93817577  0.50015175  0.17723678     0.13400
H237        H  0.75106737  0.49725162  0.11314727     0.26600
H238        H  0.75408555  0.50855854  0.16927125     0.26600
N239        N  0.22817129  0.74567229  0.09318946    -0.36100
N240        N  0.15970398  0.66386533  0.13934093    -0.56700
N241        N  0.22253197  0.74971823  0.18654707    -0.36100
N242        N  0.29367080  0.82981775  0.14010011    -0.56700
C243        C  0.18132597  0.70778805  0.07758263     0.27400
C244        C  0.24770921  0.79727964  0.07914642     0.27400
C245        C  0.17208918  0.71239821  0.20149921     0.27400
C246        C  0.25243086  0.80069201  0.20244833     0.27400
C247        C  0.14205300  0.62864244  0.11481053     0.36100
C248        C  0.12921542  0.63074631  0.16342420     0.36100
C249        C  0.32383011  0.85762903  0.11491472     0.36100
C250        C  0.32631256  0.86098374  0.16374067     0.36100
C251        C  0.17019574  0.73568190  0.05389670    -0.21400
C252        C  0.21228319  0.79278371  0.05504370    -0.21400
C253        C  0.17056826  0.74119676  0.22736744    -0.21400
C254        C  0.22047893  0.79578359  0.22790781    -0.21400
C255        C  0.10167689  0.57283780  0.12334447    -0.22500
C256        C  0.09196318  0.57426354  0.15350996    -0.22500
C257        C  0.37561676  0.90604939  0.12246659    -0.22500
C258        C  0.37668174  0.90902622  0.15322954    -0.22500
C259        C  0.14838766  0.64865882  0.08446177    -0.17800
C260        C  0.30036259  0.84635110  0.08559226    -0.17800
C261        C  0.30794354  0.85085058  0.19425143    -0.17800
C262        C  0.12963886  0.65253098  0.19299964    -0.17800
H263        H  0.13516333  0.71709081  0.03767639     0.15100
H264        H  0.21708302  0.82686071  0.03954255     0.15100
H265        H  0.13753168  0.72554620  0.24460561     0.15100
H266        H  0.23152718  0.82833866  0.24512247     0.15100
H267        H  0.07601827  0.53684768  0.10849036     0.13400
H268        H  0.05701864  0.53794398  0.16511858     0.13400
H269        H  0.40731963  0.93849096  0.10731587     0.13400
H270        H  0.40953403  0.94486796  0.16592349     0.13400
H271        H  0.24907944  0.73562590  0.11026225     0.26600
H272        H  0.23874737  0.73885064  0.16800649     0.26600
N273        N  0.22477889  0.75037324  0.42260880    -0.36100
N274        N  0.29307931  0.83547723  0.37578998    -0.56700
N275        N  0.22734357  0.75229950  0.32970431    -0.36100
N276        N  0.16010964  0.66632339  0.37653509    -0.56700
C277        C  0.24655789  0.80129218  0.43740723     0.27400
C278        C  0.17798326  0.71159977  0.43857239     0.27400
C279        C  0.27264170  0.79180169  0.31267103     0.27400
C280        C  0.19770517  0.70357732  0.31293010     0.27400
C281        C  0.32107193  0.86583770  0.40068921     0.36100
C282        C  0.32491685  0.86710828  0.35174179     0.36100
C283        C  0.13269297  0.63284172  0.40112308     0.36100
C284        C  0.13022217  0.63567298  0.35200273     0.36100
C285        C  0.21272011  0.79517513  0.46237906    -0.21400
C286        C  0.16968818  0.73840505  0.46328729    -0.21400
C287        C  0.27158958  0.76685903  0.28505604    -0.21400
C288        C  0.22482864  0.71181686  0.28526333    -0.21400
C289        C  0.37120697  0.91606689  0.39238362    -0.22500
C290        C  0.37355491  0.91685824  0.36151291    -0.22500
C291        C  0.08652164  0.58024531  0.39197923    -0.22500
C292        C  0.08453895  0.58225547  0.36107405    -0.22500
C293        C  0.29878487  0.85202643  0.43045183    -0.17800
C294        C  0.14155525  0.65270284  0.43142246    -0.17800
C295        C  0.14517026  0.65334945  0.32140357    -0.17800
C296        C  0.31407122  0.84974915  0.32119824    -0.17800
H297        H  0.21870868  0.82816507  0.47846816     0.15100
H298        H  0.13546122  0.71943862  0.47999046     0.15100
H299        H  0.30069926  0.78473617  0.26607765     0.15100
H300        H  0.21370686  0.68182327  0.26680884     0.15100
H301        H  0.40261334  0.94920761  0.40698892     0.13400
H302        H  0.40868792  0.94872439  0.34783463     0.13400
H303        H  0.05466134  0.54570197  0.40613004     0.13400
H304        H  0.05289014  0.54799247  0.34698488     0.13400
H305        H  0.24406599  0.74127475  0.40465236     0.26600
H306        H  0.21319163  0.75999761  0.35005495     0.26600
N307        N  0.47059900  0.24131670  0.09696885    -0.36100
N308        N  0.45003851  0.15668860  0.14408012    -0.56700
N309        N  0.46818386  0.24084995  0.18990171    -0.36100
N310        N  0.48678171  0.32484070  0.14294966    -0.56700
C311        C  0.44077250  0.19010094  0.08260017     0.27400
C312        C  0.46160760  0.27955405  0.08100293     0.27400
C313        C  0.44331180  0.19031548  0.20595766     0.27400
C314        C  0.45844408  0.27879399  0.20536383     0.27400
C315        C  0.45180132  0.12726847  0.11976708     0.36100
C316        C  0.45183749  0.12688482  0.16866028     0.36100
C317        C  0.49658387  0.35886324  0.11802281     0.36100
C318        C  0.49213018  0.35793970  0.16727652     0.36100
C319        C  0.41129232  0.19527191  0.05795903    -0.21400
C320        C  0.42480245  0.25207916  0.05678781    -0.21400
C321        C  0.41628674  0.19565659  0.23130401    -0.21400
C322        C  0.42558220  0.25163554  0.23081115    -0.21400
C323        C  0.45392386  0.07839438  0.12902387    -0.22500
C324        C  0.45423548  0.07830437  0.15999924    -0.22500
C325        C  0.50660185  0.41300143  0.12674181    -0.22500
C326        C  0.50404437  0.41242165  0.15777061    -0.22500
C327        C  0.44377883  0.14026792  0.08968369    -0.17800
C328        C  0.48551928  0.33867972  0.08768141    -0.17800
C329        C  0.47998225  0.33773227  0.19766608    -0.17800
C330        C  0.44635318  0.14036011  0.19868729    -0.17800
H331        H  0.38353702  0.16171871  0.04225177     0.15100
H332        H  0.40863744  0.27073297  0.04018107     0.15100
H333        H  0.39238434  0.16259462  0.24834950     0.15100
H334        H  0.41016317  0.27043247  0.24736730     0.15100
H335        H  0.45233406  0.04460804  0.11502811     0.13400
H336        H  0.45410851  0.04515804  0.17448074     0.13400
H337        H  0.50937139  0.44721851  0.11217778     0.13400
H338        H  0.50573090  0.44628976  0.17167580     0.13400
H339        H  0.50029077  0.25108184  0.11454393     0.26600
H340        H  0.49606077  0.25074299  0.17151405     0.26600
N341        N  0.47206378  0.24621857  0.42534475    -0.36100
N342        N  0.45640709  0.16145100  0.37946068    -0.56700
N343        N  0.45288459  0.23513269  0.33213018    -0.36100
N344        N  0.47818705  0.32477046  0.37869402    -0.56700
C345        C  0.44362975  0.19515912  0.44044736     0.27400
C346        C  0.46207698  0.28355560  0.44087510     0.27400
C347        C  0.46331590  0.19759296  0.31585519     0.27400
C348        C  0.47161333  0.28517041  0.31545439     0.27400
C349        C  0.45777802  0.13320510  0.40484163     0.36100
C350        C  0.45274421  0.12720178  0.35621138     0.36100
C351        C  0.49076707  0.36053675  0.40271082     0.36100
C352        C  0.47599127  0.35487690  0.35430275     0.36100
C353        C  0.41389193  0.19951845  0.46494669    -0.21400
C354        C  0.42596376  0.25571945  0.46537600    -0.21400
C355        C  0.49025358  0.22510658  0.28911081    -0.21400
C356        C  0.49544477  0.27970794  0.28889581    -0.21400
C357        C  0.45733488  0.08258014  0.39753032    -0.22500
C358        C  0.45235692  0.07793114  0.36693550    -0.22500
C359        C  0.49763564  0.41358015  0.39328432    -0.22500
C360        C  0.48686446  0.40953732  0.36290223    -0.22500
C361        C  0.44777756  0.14609294  0.43422633    -0.17800
C362        C  0.48425824  0.34217776  0.43341655    -0.17800
C363        C  0.47072735  0.33691997  0.32396076    -0.17800
C364        C  0.45338138  0.14107591  0.32534974    -0.17800
H365        H  0.38686087  0.16583837  0.48109323     0.15100
H366        H  0.40921263  0.27370411  0.48163665     0.15100
H367        H  0.50745724  0.20901291  0.27215322     0.15100
H368        H  0.51716135  0.31279287  0.27170229     0.15100
H369        H  0.45716066  0.05042754  0.41279728     0.13400
H370        H  0.44986478  0.04266165  0.35410940     0.13400
H371        H  0.50545115  0.44998361  0.40720082     0.13400
H372        H  0.48823732  0.44369115  0.34870902     0.13400
H373        H  0.50123027  0.25653545  0.40750924     0.26600
H374        H  0.43080594  0.22606124  0.35267385     0.26600
N375        N  0.43155685  0.43177365  0.05550729    -0.36100
N376        N  0.48546801  0.39931899  0.01052120    -0.56700
N377        N  0.43312658  0.43614849  0.46560677    -0.36100
N378        N  0.39353003  0.48349360  0.01091436    -0.56700
C379        C  0.43375772  0.38626176  0.06775458     0.27400
C380        C  0.38468734  0.43009950  0.06768413     0.27400
C381        C  0.43379421  0.39008337  0.45378119     0.27400
C382        C  0.38611100  0.43523316  0.45388752     0.27400
C383        C  0.50586281  0.38465658  0.03502601     0.36100
C384        C  0.50611397  0.38656987  0.48580997     0.36100
C385        C  0.37828611  0.50183223  0.03570090     0.36100
C386        C  0.37995239  0.50482771  0.48629465     0.36100
C387        C  0.38706550  0.35440512  0.08693177    -0.21400
C388        C  0.35571483  0.38201547  0.08673627    -0.21400
C389        C  0.38570811  0.35835247  0.43558193    -0.21400
C390        C  0.35532053  0.38698349  0.43571724    -0.21400
C391        C  0.54295813  0.36535726  0.02592157    -0.22500
C392        C  0.54310099  0.36654149  0.49458416    -0.22500
C393        C  0.35738649  0.53823979  0.02695477    -0.22500
C394        C  0.35848068  0.54018284  0.49551572    -0.22500
C395        C  0.47948110  0.37553034  0.06380067    -0.17800
C396        C  0.37109431  0.47441004  0.06437987    -0.17800
C397        C  0.37341099  0.47989165  0.45722504    -0.17800
C398        C  0.47943750  0.37894971  0.45717226    -0.17800
H399        H  0.37715908  0.31584133  0.10011647     0.15100
H400        H  0.31696459  0.36918694  0.09985816     0.15100
H401        H  0.37436556  0.31931514  0.42301375     0.09100
H402        H  0.31587974  0.37459491  0.42324666     0.15100
H403        H  0.56314423  0.34707941  0.04015025     0.13400
H404        H  0.56341555  0.34935480  0.48009909     0.13400
H405        H  0.33865348  0.55707632  0.04141997     0.13400
H406        H  0.34056113  0.56068435  0.48124592     0.13400
H407        H  0.46389941  0.46582201  0.04271413     0.26600
H408        H  0.46629187  0.46990178  0.47790644     0.26600
N409        N  0.23900343  0.47052906  0.42584367    -0.36100
N410        N  0.31974725  0.48677203  0.37793251    -0.56700
N411        N  0.23162195  0.46693762  0.33190827    -0.36100
N412        N  0.15246405  0.45266439  0.38049889    -0.56700
C413        C  0.27759016  0.46129273  0.44101641     0.27400
C414        C  0.18906832  0.44147091  0.44153697     0.27400
C415        C  0.28310700  0.49595565  0.31695521     0.27400
C416        C  0.19490070  0.48224568  0.31860362     0.27400
C417        C  0.35360883  0.49202977  0.40214274     0.36100
C418        C  0.34897657  0.48685209  0.35280331     0.36100
C419        C  0.12450593  0.45283586  0.40590405     0.36100
C420        C  0.11891648  0.45141347  0.35711309     0.36100
C421        C  0.25144736  0.42488758  0.46586830    -0.21400
C422        C  0.19537716  0.41211791  0.46606676    -0.21400
C423        C  0.27994957  0.53245081  0.29546188    -0.21400
C424        C  0.22446808  0.52346062  0.29632005    -0.21400
C425        C  0.40444127  0.49581945  0.39206605    -0.22500
C426        C  0.40130859  0.49202071  0.36113413    -0.22500
C427        C  0.07459578  0.45357696  0.39841708    -0.22500
C428        C  0.07032741  0.45097480  0.36766218    -0.22500
C429        C  0.33583136  0.48418004  0.43314121    -0.17800
C430        C  0.13901159  0.44404048  0.43554396    -0.17800
C431        C  0.13599237  0.46154964  0.32664946    -0.17800
C432        C  0.33252331  0.49006013  0.32251184    -0.17800
H433        H  0.27040159  0.40822827  0.48198903     0.15100
H434        H  0.16299228  0.38458599  0.48254047     0.15100
H435        H  0.31495980  0.56552539  0.28210692     0.15100
H436        H  0.20916309  0.54799476  0.28357635     0.15100
H437        H  0.43911983  0.49769414  0.40555260     0.13400
H438        H  0.43473490  0.49438682  0.34656715     0.13400
H439        H  0.04400396  0.45517380  0.41361676     0.13400
H440        H  0.03799034  0.45369356  0.35436793     0.13400
H441        H  0.24776500  0.49960909  0.40782363     0.26600
H442        H  0.22093167  0.43499450  0.34862838     0.26600
N443        N  0.23848237  0.46332459  0.09930730    -0.36100
N444        N  0.31961584  0.46866009  0.14423280    -0.56700
N445        N  0.23538359  0.44667650  0.19390415    -0.36100
N446        N  0.15674644  0.44632286  0.14703066    -0.56700
C447        C  0.27604178  0.45543784  0.08258675     0.27400
C448        C  0.18705322  0.43414225  0.08500547     0.27400
C449        C  0.28889418  0.46934654  0.20680792     0.27400
C450        C  0.20862827  0.47361660  0.20684174     0.27400
C451        C  0.35436264  0.48383071  0.11951517     0.36100
C452        C  0.35076996  0.46514053  0.16766579     0.36100
C453        C  0.12407698  0.44252516  0.12267907     0.36100
C454        C  0.12718854  0.44698525  0.17167995     0.36100
C455        C  0.24803319  0.41992555  0.05814640    -0.21400
C456        C  0.19162598  0.40594862  0.05988063    -0.21400
C457        C  0.29697263  0.51262416  0.22632747    -0.21400
C458        C  0.24704695  0.51558518  0.22627202    -0.21400
C459        C  0.40780381  0.49123703  0.12775254    -0.22500
C460        C  0.40484512  0.47758181  0.15786409    -0.22500
C461        C  0.07367914  0.44043615  0.13206234    -0.22500
C462        C  0.07508779  0.44212416  0.16293071    -0.22500
C463        C  0.33485628  0.47824393  0.08903733    -0.17800
C464        C  0.13719371  0.43620831  0.09239911    -0.17800
C465        C  0.15133300  0.46294105  0.20087924    -0.17800
C466        C  0.33488392  0.45990548  0.19835860    -0.17800
H467        H  0.26599145  0.40453092  0.04112893     0.15100
H468        H  0.15783433  0.37862470  0.04416748     0.15100
H469        H  0.33756244  0.54425279  0.23610460     0.15100
H470        H  0.24264483  0.54970886  0.23653427     0.15100
H471        H  0.44377689  0.50088956  0.11308894     0.13400
H472        H  0.43946548  0.47892584  0.17122576     0.13400
H473        H  0.03911037  0.43822776  0.11832181     0.13400
H474        H  0.04257052  0.44313468  0.17688647     0.13400
H475        H  0.24881470  0.49162232  0.11746079     0.26600
H476        H  0.21766688  0.41325498  0.17806178     0.26600
N477        N  0.99345325  0.38335160  0.46830315    -0.36100
N478        N  0.07946734  0.42661301  0.01399662    -0.56700
N479        N  0.99241449  0.38095776  0.05785399    -0.36100
N480        N  0.90717570  0.34960582  0.01195261    -0.56700
C481        C  0.03918857  0.38313389  0.45602015     0.27400
C482        C  0.94614669  0.34174217  0.45435101     0.27400
C483        C  0.03709404  0.37975619  0.07127731     0.27400
C484        C  0.94414181  0.33756600  0.07031016     0.27400
C485        C  0.11240627  0.45316009  0.48958868     0.36100
C486        C  0.11154512  0.45160758  0.03874110     0.36100
C487        C  0.87525507  0.34433311  0.48727368     0.36100
C488        C  0.87473642  0.34293371  0.03644012     0.36100
C489        C  0.02090031  0.33936359  0.43473875    -0.21400
C490        C  0.96152629  0.31307755  0.43360553    -0.21400
C491        C  0.01721230  0.33356486  0.09168378    -0.21400
C492        C  0.95783747  0.30687425  0.09123555    -0.21400
C493        C  0.16599655  0.49798856  0.49871078    -0.22500
C494        C  0.16541539  0.49701384  0.03009571    -0.22500
C495        C  0.82213728  0.33681671  0.49603986    -0.22500
C496        C  0.82178132  0.33589754  0.02738569    -0.22500
C497        C  0.09615765  0.42822942  0.46056554    -0.17800
C498        C  0.89085533  0.33446981  0.45830817    -0.17800
C499        C  0.88931776  0.33075118  0.06538127    -0.17800
C500        C  0.09442972  0.42450789  0.06758413    -0.17800
H501        H  0.04772885  0.32966073  0.42046873     0.15100
H502        H  0.93318522  0.27851797  0.41852910     0.15100
H503        H  0.04281901  0.32218580  0.10628304     0.15100
H504        H  0.92825770  0.27047177  0.10535690     0.15100
H505        H  0.20268378  0.52579559  0.48446429     0.13400
H506        H  0.20159210  0.52396967  0.04466606     0.13400
H507        H  0.78605222  0.32860170  0.48155784     0.13400
H508        H  0.78533738  0.32670931  0.04168689     0.13400
H509        H  0.99518432  0.41605031  0.48196611     0.26600
H510        H  0.99484222  0.41470817  0.04430522     0.26600
N511        N  0.38208919  0.99470576  0.05484110    -0.36100
N512        N  0.34453265  0.90981065  0.00840512    -0.56700
N513        N  0.38135640  0.99782995  0.46559135    -0.36100
N514        N  0.43117932  0.08284409  0.01175698    -0.56700
C515        C  0.33737783  0.94683200  0.06687814     0.27400
C516        C  0.38484526  0.04034202  0.06917259     0.27400
C517        C  0.33827646  0.95209423  0.45129203     0.27400
C518        C  0.38412832  0.04580390  0.45365293     0.27400
C519        C  0.33852221  0.87650090  0.03266364     0.36100
C520        C  0.33837051  0.87822657  0.48371017     0.36100
C521        C  0.45694088  0.11456017  0.03643119     0.36100
C522        C  0.45730895  0.11630569  0.48740541     0.36100
C523        C  0.30995342  0.96183264  0.08860020    -0.21400
C524        C  0.34020230  0.02161971  0.09000254    -0.21400
C525        C  0.31183903  0.97083804  0.43051797    -0.21400
C526        C  0.34106659  0.03069401  0.43204222    -0.21400
C527        C  0.33085563  0.82326727  0.02353000    -0.22500
C528        C  0.33083570  0.82439244  0.49221504    -0.22500
C529        C  0.50224151  0.16871354  0.02779506    -0.22500
C530        C  0.50258722  0.16980767  0.49645921    -0.22500
C531        C  0.32797742  0.89097100  0.06153398    -0.17800
C532        C  0.43070218  0.09731881  0.06523186    -0.17800
C533        C  0.43122879  0.10165565  0.45860039    -0.17800
C534        C  0.32789014  0.89513572  0.45506981    -0.17800
H535        H  0.27369292  0.93267092  0.10276812     0.15100
H536        H  0.33171524  0.04806301  0.10525669     0.15100
H537        H  0.27693043  0.94439104  0.41514991     0.15100
H538        H  0.33368510  0.05985291  0.41781169     0.15100
H539        H  0.32216058  0.78623654  0.03774798     0.13400
H540        H  0.32218510  0.78847658  0.47761836     0.13400
H541        H  0.52944414  0.20481963  0.04233852     0.13400
H542        H  0.52993933  0.20700429  0.48219960     0.13400
H543        H  0.41409884  0.99555106  0.04098328     0.26600
H544        H  0.41310348  0.99700577  0.47919042     0.26600
N545        N  0.99517945  0.56147028  0.46536190    -0.36100
N546        N  0.08406517  0.59171346  0.00858580    -0.56700
N547        N  0.99878734  0.55697245  0.05598191    -0.36100
N548        N  0.90914261  0.51342034  0.01184824    -0.56700
C549        C  0.04208155  0.60524700  0.45172003     0.27400
C550        C  0.94922933  0.56309386  0.45384339     0.27400
C551        C  0.04750157  0.60106819  0.06769284     0.27400
C552        C  0.95472743  0.55899048  0.06953997     0.27400
C553        C  0.11707738  0.60539451  0.48351166     0.36100
C554        C  0.11936284  0.60379044  0.03263113     0.36100
C555        C  0.87380069  0.49372880  0.48758833     0.36100
C556        C  0.87599070  0.49257131  0.03690096     0.36100
C557        C  0.02596941  0.63596356  0.43216483    -0.21400
C558        C  0.96702578  0.60930539  0.43359262    -0.21400
C559        C  0.03430926  0.63215502  0.08805085    -0.21400
C560        C  0.97555242  0.60571578  0.08906202    -0.21400
C561        C  0.17380320  0.62339591  0.49157951    -0.22500
C562        C  0.17530580  0.62258811  0.02283848    -0.22500
C563        C  0.81733746  0.45726327  0.49713880    -0.22500
C564        C  0.81871371  0.45663192  0.02851032    -0.22500
C565        C  0.09870332  0.61559226  0.45516209    -0.17800
C566        C  0.89165976  0.51930263  0.45841931    -0.17800
C567        C  0.89609742  0.51778379  0.06575959    -0.17800
C568        C  0.10363910  0.61195426  0.06184002    -0.17800
H569        H  0.05370185  0.67304191  0.41792309     0.15100
H570        H  0.94011519  0.62122171  0.42044988     0.15100
H571        H  0.06394026  0.66996873  0.10095127     0.15100
H572        H  0.95098106  0.61913633  0.10281899     0.15100
H573        H  0.21099920  0.64054377  0.47672204     0.13400
H574        H  0.21384216  0.63901433  0.03665856     0.13400
H575        H  0.77884755  0.43733621  0.48320256     0.13400
H576        H  0.78141722  0.43612097  0.04331991     0.13400
H577        H  0.99396618  0.52802687  0.47864287     0.26600
H578        H  0.99580140  0.52407001  0.04205604     0.26600
N579        N  0.61040401  0.61212176  0.05426377    -0.36100
N580        N  0.55611105  0.64575609  0.01201152    -0.56700
N581        N  0.60515673  0.61078593  0.46460847    -0.36100
N582        N  0.64908360  0.56619829  0.00741450    -0.56700
C583        C  0.60424290  0.65227800  0.06944666     0.27400
C584        C  0.65704741  0.61220770  0.06571220     0.27400
C585        C  0.60043494  0.65486853  0.45263591     0.27400
C586        C  0.64811225  0.60925597  0.44962528     0.27400
C587        C  0.53000861  0.65036551  0.03695109     0.36100
C588        C  0.52875939  0.65164239  0.48782837     0.36100
C589        C  0.65734761  0.54078244  0.03182942     0.36100
C590        C  0.65325711  0.53911947  0.48285142     0.36100
C591        C  0.64851415  0.67972789  0.09034132    -0.21400
C592        C  0.68229464  0.65426289  0.08791882    -0.21400
C593        C  0.64200722  0.68313160  0.43027513    -0.21400
C594        C  0.67246701  0.65406729  0.42839558    -0.21400
C595        C  0.48354945  0.65709463  0.02862976    -0.22500
C596        C  0.48283130  0.65803314  0.49728778    -0.22500
C597        C  0.66459098  0.49483819  0.02304755    -0.22500
C598        C  0.66192711  0.49373024  0.49171676    -0.22500
C599        C  0.55638534  0.66013261  0.06579796    -0.17800
C600        C  0.66849783  0.56697337  0.06045418    -0.17800
C601        C  0.66108022  0.56453676  0.45371225    -0.17800
C602        C  0.55349091  0.66302778  0.45862442    -0.17800
H603        H  0.65462488  0.71302289  0.10624872     0.15100
H604        H  0.71897244  0.66302750  0.10205914     0.15100
H605        H  0.64801825  0.71923022  0.41601523     0.15100
H606        H  0.70707654  0.66351486  0.41265650     0.15100
H607        H  0.45577739  0.66455055  0.04339842     0.13400
H608        H  0.45440701  0.66643416  0.48324690     0.13400
H609        H  0.67438636  0.46755329  0.03740653     0.13400
H610        H  0.66946431  0.46560422  0.47724065     0.13400
H611        H  0.57926859  0.57990977  0.04040144     0.26600
H612        H  0.57512335  0.57838260  0.47910043     0.26600
O613        O  0.49213448  0.61649452  0.24353501    -0.79700
O614        O  0.53763203  0.39740817  0.23830795    -0.79700
O615        O  0.64923588  0.58304794  0.23414856    -0.79700
O616        O  0.37264723  0.42594846  0.23886308    -0.79600
O617        O  0.58051210  0.50339047  0.21476023    -0.79800
O618        O  0.42641360  0.51413739  0.22499632    -0.79700
O619        O  0.45610217  0.39964025  0.22757940    -0.79700
O620        O  0.57535081  0.63098957  0.22451075    -0.79700
C621        C  0.53195001  0.63890908  0.22385866     1.10000
C622        C  0.49123680  0.37956089  0.22273592     1.09900
C623        C  0.63346962  0.54285556  0.21519632     1.10000
C624        C  0.37935962  0.46684894  0.22182347     1.09900
O625        O  0.39168814  0.53958066  0.27862196    -0.79700
O626        O  0.62179341  0.49859105  0.27443828    -0.79700
O627        O  0.57974264  0.65327869  0.28705302    -0.79700
O628        O  0.43081341  0.37600816  0.28766299    -0.79700
O629        O  0.52218207  0.42638853  0.29498534    -0.79700
O630        O  0.49481233  0.58767139  0.30440999    -0.79700
O631        O  0.39358066  0.46049271  0.29503600    -0.79600
O632        O  0.63145433  0.57858849  0.29622544    -0.79700
Co633      Co  0.46186105  0.54349109  0.26633524     1.51500
Co634      Co  0.54432111  0.46639884  0.25417417     1.51700
Co635      Co  0.60225151  0.60501217  0.26078267     1.51600
Co636      Co  0.44342623  0.44494871  0.26301676     1.51500
O637        O  0.52453461  0.52607491  0.26264900    -1.41600
C638        C  0.37317086  0.49628791  0.29692040     1.09900
C639        C  0.64256951  0.53662226  0.29535475     1.10000
C640        C  0.53675414  0.64013283  0.30405661     1.10000
C641        C  0.47486719  0.38042697  0.30040660     1.09900
O642        O  0.48480768  0.91511104  0.29528563    -0.79700
O643        O  0.49011340  0.08300714  0.30291983    -0.79700
O644        O  0.57839046  0.06052861  0.29749661    -0.79700
O645        O  0.36254456  0.94499769  0.29745877    -0.79600
O646        O  0.59147702  0.14463371  0.27718103    -0.79800
O647        O  0.37475213  0.87547227  0.27792493    -0.79700
O648        O  0.40798499  0.06866573  0.28598485    -0.79700
O649        O  0.57612023  0.95155217  0.28424006    -0.79700
C650        C  0.53216947  0.91395306  0.29938082     1.10000
C651        C  0.45113427  0.09657879  0.30313976     1.09900
C652        C  0.60499667  0.11814987  0.29716523     1.10000
C653        C  0.35250003  0.89259002  0.29758653     1.09900
O654        O  0.40281192  0.90726261  0.21669664    -0.79700
O655        O  0.56097665  0.08952377  0.22330976    -0.79700
O656        O  0.52111860  0.93362040  0.22854063    -0.79700
O657        O  0.40432796  0.04818053  0.22424302    -0.79700
O658        O  0.48777650  0.12185525  0.24197990    -0.79700
O659        O  0.44704203  0.85012220  0.24466333    -0.79700
O660        O  0.33601977  0.92323050  0.23464845    -0.79600
O661        O  0.60967021  0.04921005  0.23834120    -0.79700
Co662      Co  0.44757342  0.91907299  0.25473865     1.51500
Co663      Co  0.52338102  0.07975707  0.26326710     1.51700
Co664      Co  0.53992036  0.99336352  0.26431422     1.51600
Co665      Co  0.38444104  0.99625038  0.26049538     1.51500
O666        O  0.46497882  0.00125762  0.25589836    -1.41600
C667        C  0.35041620  0.89527840  0.21687136     1.09900
C668        C  0.60614668  0.08596503  0.22109597     1.10000
C669        C  0.48893946  0.87725470  0.22628757     1.10000
C670        C  0.44539172  0.10131297  0.22327155     1.09900
O671        O  0.87742895  0.40516505  0.28929580    -0.79700
O672        O  0.12116637  0.60183974  0.27415295    -0.79700
O673        O  0.04914043  0.41806248  0.29554494    -0.79700
O674        O  0.93128980  0.55036007  0.29386190    -0.79600
O675        O  0.10491242  0.51050255  0.29258197    -0.79800
O676        O  0.87742114  0.45411208  0.28764021    -0.79700
O677        O  0.05046832  0.60087748  0.30028528    -0.79700
O678        O  0.93031442  0.36386427  0.29278052    -0.79700
C679        C  0.88584562  0.36607369  0.30089358     1.10000
C680        C  0.10369533  0.61676413  0.29737513     1.09900
C681        C  0.09456832  0.46314882  0.30376131     1.10000
C682        C  0.88705162  0.50176379  0.30036972     1.09900
O683        O  0.87341029  0.47970524  0.23752827    -0.79700
O684        O  0.14235732  0.52663470  0.23633517    -0.79700
O685        O  0.93339883  0.37220531  0.22607455    -0.79700
O686        O  0.06598684  0.62703240  0.23711788    -0.79700
O687        O  0.06619757  0.55563019  0.21518191    -0.79700
O688        O  0.85426280  0.37662814  0.23485427    -0.79700
O689        O  0.94667998  0.56585422  0.22821368    -0.79600
O690        O  0.06389487  0.43849262  0.23015351    -0.79700
Co691      Co  0.91907883  0.44343623  0.25126312     1.51500
Co692      Co  0.07656223  0.52406171  0.25389418     1.51700
Co693      Co  0.99437541  0.41080504  0.26174303     1.51600
Co694      Co  0.99773383  0.57788735  0.26508928     1.51500
O695        O  0.99640215  0.49642345  0.26793145    -1.41600
C696        C  0.89406670  0.52762572  0.22385244     1.09900
C697        C  0.11830462  0.47667735  0.22413653     1.10000
C698        C  0.87795966  0.35173489  0.22217490     1.10000
C699        C  0.08418355  0.60975498  0.21560175     1.09900
N700        N  0.51667403  0.76441336  0.59884260    -0.36100
N701        N  0.53130391  0.69481774  0.64510585    -0.56700
N702        N  0.51595625  0.76273775  0.69189130    -0.36100
N703        N  0.50081157  0.83213971  0.64581711    -0.56700
C704        C  0.54452464  0.74169161  0.58372538     0.27400
C705        C  0.52659236  0.81239429  0.58306739     0.27400
C706        C  0.51124837  0.71761517  0.70886894     0.27400
C707        C  0.49793117  0.79235423  0.70940696     0.27400
C708        C  0.53241132  0.66587140  0.62035458     0.36100
C709        C  0.53094593  0.66320731  0.66939820     0.36100
C710        C  0.49705928  0.86071932  0.62092796     0.36100
C711        C  0.50040596  0.86214933  0.67052580     0.36100
C712        C  0.57364474  0.77634353  0.55892939    -0.21400
C713        C  0.56208554  0.82078619  0.55838264    -0.21400
C714        C  0.48976441  0.71907292  0.73720881    -0.21400
C715        C  0.48175687  0.76557678  0.73754131    -0.21400
C716        C  0.53137623  0.61508986  0.62897580    -0.22500
C717        C  0.53037372  0.61338279  0.65998884    -0.22500
C718        C  0.49401972  0.90882538  0.63017666    -0.22500
C719        C  0.49672480  0.90999933  0.66121552    -0.22500
C720        C  0.54143244  0.68844032  0.59047137    -0.17800
C721        C  0.50527646  0.84966681  0.59016207    -0.17800
C722        C  0.49798564  0.84423926  0.70132189    -0.17800
C723        C  0.52696773  0.67607256  0.69995049    -0.17800
H724        H  0.60037682  0.77016600  0.54278460     0.15100
H725        H  0.57900435  0.85595234  0.54186793     0.15100
H726        H  0.48065249  0.69120770  0.75675554     0.15100
H727        H  0.46655580  0.77748606  0.75722755     0.15100
H728        H  0.53266803  0.58332284  0.61448219     0.13400
H729        H  0.52732298  0.57842938  0.67407938     0.13400
H730        H  0.49326877  0.94196674  0.61610531     0.13400
H731        H  0.49554915  0.94237329  0.67521474     0.13400
H732        H  0.48794195  0.74531019  0.61688217     0.26600
H733        H  0.53603969  0.77601862  0.67092493     0.26600
N734        N  0.51356913  0.76773641  0.92578209    -0.36100
N735        N  0.52824306  0.69881001  0.88000748    -0.56700
N736        N  0.53070071  0.77601728  0.83215403    -0.36100
N737        N  0.51363813  0.84425652  0.87812875    -0.56700
C738        C  0.54107158  0.74450526  0.94102447     0.27400
C739        C  0.52522698  0.81598893  0.94087938     0.27400
C740        C  0.54755006  0.74226932  0.81677955     0.27400
C741        C  0.54645418  0.82645622  0.81600900     0.27400
C742        C  0.52420576  0.66786195  0.90538018     0.36100
C743        C  0.52702971  0.66607096  0.85654920     0.36100
C744        C  0.49729573  0.86424414  0.90220980     0.36100
C745        C  0.51429214  0.87558773  0.85335441     0.36100
C746        C  0.57165594  0.77893969  0.96530273    -0.21400
C747        C  0.56140020  0.82421049  0.96531961    -0.21400
C748        C  0.57516292  0.77244571  0.79051050    -0.21400
C749        C  0.57425787  0.82467385  0.78996435    -0.21400
C750        C  0.52023921  0.61566290  0.89808970    -0.22500
C751        C  0.52314139  0.61486710  0.86739230    -0.22500
C752        C  0.48772422  0.90843394  0.89260465    -0.22500
C753        C  0.49896214  0.91609341  0.86208463    -0.22500
C754        C  0.53596741  0.69093042  0.93473378    -0.17800
C755        C  0.50368887  0.85265858  0.93326625    -0.17800
C756        C  0.53336774  0.87198104  0.82358157    -0.17800
C757        C  0.53694616  0.68458317  0.82590163    -0.17800
H758        H  0.59835800  0.77203417  0.98143351     0.15100
H759        H  0.57931912  0.85957229  0.98130231     0.15100
H760        H  0.59385894  0.75831676  0.77326107     0.15100
H761        H  0.59162419  0.85731121  0.77211263     0.15100
H762        H  0.52043700  0.58370250  0.91341416     0.13400
H763        H  0.52621357  0.58174927  0.85501525     0.13400
H764        H  0.47972610  0.93651681  0.90672141     0.13400
H765        H  0.49925169  0.95030366  0.84845431     0.13400
H766        H  0.48410908  0.74905503  0.90806756     0.26600
H767        H  0.50416688  0.76217863  0.85112350     0.26600
N768        N  0.74709554  0.23113354  0.92466129    -0.36100
N769        N  0.82996818  0.30237899  0.87873317    -0.56700
N770        N  0.74756397  0.23553965  0.83125429    -0.36100
N771        N  0.66377055  0.16478926  0.87729046    -0.56700
C772        C  0.79760412  0.25358088  0.93992317     0.27400
C773        C  0.70979437  0.18224798  0.93983971     0.27400
C774        C  0.78621396  0.28418417  0.81563960     0.27400
C775        C  0.69832756  0.20783963  0.81435748     0.27400
C776        C  0.86086790  0.32984352  0.90368778     0.36100
C777        C  0.86225958  0.33359095  0.85470036     0.36100
C778        C  0.63135035  0.13662256  0.90205341     0.36100
C779        C  0.63227011  0.13566617  0.85262755     0.36100
C780        C  0.79284030  0.21793508  0.96422928    -0.21400
C781        C  0.73725694  0.17291858  0.96426533    -0.21400
C782        C  0.76073873  0.28793457  0.78906765    -0.21400
C783        C  0.70615802  0.24018341  0.78803082    -0.21400
C784        C  0.91193109  0.37901303  0.89533286    -0.22500
C785        C  0.91316061  0.38062626  0.86440793    -0.22500
C786        C  0.57904306  0.09025683  0.89289825    -0.22500
C787        C  0.57983317  0.08917725  0.86196603    -0.22500
C788        C  0.84721229  0.30702604  0.93353324    -0.17800
C789        C  0.65132133  0.14564545  0.93261072    -0.17800
C790        C  0.64738050  0.15375505  0.82190447    -0.17800
C791        C  0.84419903  0.32490753  0.82425489    -0.17800
H792        H  0.82601195  0.22377225  0.98031853     0.15100
H793        H  0.71939696  0.13694188  0.98030479     0.15100
H794        H  0.77879114  0.32188260  0.77209800     0.15100
H795        H  0.67643764  0.23214565  0.76965879     0.15100
H796        H  0.94523846  0.41009506  0.90998281     0.13400
H797        H  0.94589025  0.41435130  0.85041047     0.13400
H798        H  0.54500607  0.05788337  0.90701710     0.13400
H799        H  0.54486824  0.05772746  0.84825112     0.13400
H800        H  0.73696177  0.25092043  0.90698313     0.26600
H801        H  0.75632424  0.21905130  0.85084124     0.26600
N802        N  0.74576038  0.22442842  0.59709734    -0.36100
N803        N  0.66509588  0.14956142  0.64317631    -0.56700
N804        N  0.74648290  0.21708231  0.69037636    -0.36100
N805        N  0.82861659  0.29057019  0.64413569    -0.56700
C806        C  0.70898901  0.17743793  0.58112501     0.27400
C807        C  0.79667800  0.24782945  0.58239887     0.27400
C808        C  0.70857063  0.16937784  0.70712160     0.27400
C809        C  0.79367814  0.25146608  0.70775269     0.27400
C810        C  0.63066308  0.12944411  0.61838544     0.36100
C811        C  0.63237729  0.11885649  0.66731651     0.36100
C812        C  0.85699036  0.32208910  0.61928351     0.36100
C813        C  0.85730485  0.32341620  0.66825664     0.36100
C814        C  0.73699388  0.17020066  0.55660619    -0.21400
C815        C  0.79274865  0.21470322  0.55754261    -0.21400
C816        C  0.73254723  0.17376841  0.73559313    -0.21400
C817        C  0.78582056  0.22507500  0.73593443    -0.21400
C818        C  0.57630209  0.08545761  0.62684901    -0.22500
C819        C  0.57747173  0.07826329  0.65752787    -0.22500
C820        C  0.90431721  0.37426670  0.62761688    -0.22500
C821        C  0.90448990  0.37539675  0.65856240    -0.22500
C822        C  0.65054256  0.14111564  0.58793515    -0.17800
C823        C  0.84510788  0.30101409  0.58942132    -0.17800
C824        C  0.84299322  0.30643279  0.69890003    -0.17800
C825        C  0.65169095  0.12429895  0.69786000    -0.17800
H826        H  0.71936663  0.13609255  0.53990796     0.15100
H827        H  0.82639060  0.22221338  0.54152946     0.15100
H828        H  0.71354345  0.14344869  0.75436302     0.15100
H829        H  0.81572295  0.24094734  0.75476908     0.15100
H830        H  0.54125555  0.05761253  0.61202162     0.13400
H831        H  0.54247418  0.04494379  0.67080697     0.13400
H832        H  0.93681978  0.40688478  0.61287472     0.13400
H833        H  0.93688047  0.40996345  0.67221654     0.13400
H834        H  0.73503127  0.24277582  0.61486163     0.26600
H835        H  0.73817227  0.22922533  0.66945031     0.26600
N836        N  0.55678982  0.99575606  0.55602238    -0.36100
N837        N  0.50593569  0.90876657  0.51150198    -0.56700
N838        N  0.55559736  0.99853620  0.96547283    -0.36100
N839        N  0.59404692  0.08531981  0.51030722    -0.56700
C840        C  0.55612545  0.94914227  0.56877939     0.27400
C841        C  0.60286309  0.04242443  0.56784235     0.27400
C842        C  0.55410994  0.95173378  0.95323005     0.27400
C843        C  0.60152675  0.04513826  0.95286457     0.27400
C844        C  0.48551026  0.87383077  0.53632323     0.36100
C845        C  0.48440448  0.87516576  0.98675170     0.36100
C846        C  0.60725182  0.11890202  0.53501545     0.36100
C847        C  0.60757248  0.12047041  0.98570670     0.36100
C848        C  0.60331425  0.96613925  0.58777097    -0.21400
C849        C  0.63299816  0.02545936  0.58721525    -0.21400
C850        C  0.60069802  0.96863454  0.93379516    -0.21400
C851        C  0.63068229  0.02794883  0.93350293    -0.21400
C852        C  0.44827555  0.81711395  0.52734486    -0.22500
C853        C  0.44760691  0.81794186  0.99591275    -0.22500
C854        C  0.62693927  0.17616582  0.52617332    -0.22500
C855        C  0.62715808  0.17717135  0.99477815    -0.22500
C856        C  0.51104299  0.89192142  0.56547240    -0.17800
C857        C  0.61463079  0.09965666  0.56386936    -0.17800
C858        C  0.61478810  0.10271942  0.95671813    -0.17800
C859        C  0.50902372  0.89438995  0.95736512    -0.17800
H860        H  0.61430829  0.93866912  0.60121739     0.15100
H861        H  0.67151761  0.05298943  0.60020699     0.15100
H862        H  0.61136877  0.94109792  0.92070109     0.15100
H863        H  0.66891704  0.05532961  0.92013171     0.15100
H864        H  0.42758377  0.77867711  0.54171805     0.13400
H865        H  0.42627944  0.78016554  0.98156048     0.13400
H866        H  0.64403383  0.21382792  0.54063703     0.13400
H867        H  0.64442961  0.21570822  0.98048473     0.13400
H868        H  0.52385605  0.99585485  0.54314740     0.26600
H869        H  0.52335077  0.99862738  0.97873020     0.26600
N870        N  0.76628141  0.52519008  0.92312588    -0.36100
N871        N  0.69856445  0.53955718  0.87471920    -0.56700
N872        N  0.76527917  0.51959648  0.83027172    -0.36100
N873        N  0.83125708  0.50268957  0.87887891    -0.56700
C874        C  0.74437707  0.55537777  0.93657806     0.27400
C875        C  0.81281885  0.53468608  0.93972334     0.27400
C876        C  0.72054039  0.51310005  0.81251410     0.27400
C877        C  0.79480092  0.49884414  0.81473120     0.27400
C878        C  0.66967095  0.54189263  0.89924895     0.36100
C879        C  0.66751006  0.53841113  0.85013011     0.36100
C880        C  0.85917111  0.49964793  0.90397986     0.36100
C881        C  0.86231410  0.50239038  0.85478485     0.36100
C882        C  0.77820315  0.58563459  0.96114032    -0.21400
C883        C  0.82107394  0.57211176  0.96333311    -0.21400
C884        C  0.72166444  0.48653461  0.78578742    -0.21400
C885        C  0.76841779  0.47815622  0.78714743    -0.21400
C886        C  0.61936544  0.54063509  0.89022511    -0.22500
C887        C  0.61829990  0.53914817  0.85928219    -0.22500
C888        C  0.90688877  0.49553222  0.89543148    -0.22500
C889        C  0.90994234  0.49939893  0.86450941    -0.22500
C890        C  0.69145276  0.55174399  0.92921726    -0.17800
C891        C  0.84929435  0.51187626  0.93398134    -0.17800
C892        C  0.84659418  0.50065709  0.82405269    -0.17800
C893        C  0.67953190  0.53111201  0.81974476    -0.17800
H894        H  0.77204606  0.61387040  0.97625114     0.15100
H895        H  0.85509292  0.58892747  0.98015967     0.15100
H896        H  0.69234482  0.47349867  0.76684785     0.15100
H897        H  0.78107332  0.45843718  0.76976153     0.15100
H898        H  0.58712223  0.54193522  0.90430424     0.13400
H899        H  0.58358659  0.53624861  0.84535853     0.13400
H900        H  0.93900588  0.49429289  0.90987460     0.13400
H901        H  0.94348286  0.49994583  0.85070297     0.13400
H902        H  0.74701231  0.49515379  0.90578233     0.26600
H903        H  0.77913181  0.54266471  0.85036155     0.26600
N904        N  0.77104857  0.52727182  0.59548624    -0.36100
N905        N  0.69711599  0.53799583  0.63994943    -0.56700
N906        N  0.76574112  0.53316894  0.68880046    -0.36100
N907        N  0.84041528  0.52233749  0.64393359    -0.56700
C908        C  0.74881443  0.55494910  0.57953661     0.27400
C909        C  0.81980479  0.53865452  0.58102583     0.27400
C910        C  0.73187732  0.54967806  0.70395674     0.27400
C911        C  0.81309380  0.54607715  0.70610839     0.27400
C912        C  0.66950959  0.53687384  0.61401545     0.36100
C913        C  0.66247481  0.53580724  0.66272669     0.36100
C914        C  0.86357785  0.50799672  0.62057602     0.36100
C915        C  0.86707844  0.51911768  0.66946773     0.36100
C916        C  0.78434166  0.58531347  0.55526542    -0.21400
C917        C  0.82935635  0.57481244  0.55614540    -0.21400
C918        C  0.75865441  0.57367798  0.73127808    -0.21400
C919        C  0.80945057  0.57136497  0.73259753    -0.21400
C920        C  0.61759793  0.53385603  0.62041484    -0.22500
C921        C  0.61404292  0.53499857  0.65102875    -0.22500
C922        C  0.90534801  0.49625312  0.63143124    -0.22500
C923        C  0.90779115  0.50342260  0.66218822    -0.22500
C924        C  0.69513448  0.54985839  0.58507049    -0.17800
C925        C  0.85517551  0.51605339  0.58943260    -0.17800
C926        C  0.85810299  0.53343973  0.69906710    -0.17800
C927        C  0.67705780  0.54200165  0.69369959    -0.17800
H928        H  0.77817769  0.61180385  0.53849076     0.15100
H929        H  0.86521329  0.59218244  0.54038600     0.15100
H930        H  0.74362703  0.59117100  0.74868674     0.15100
H931        H  0.84017769  0.58645822  0.75108983     0.15100
H932        H  0.58718531  0.53509340  0.60465776     0.13400
H933        H  0.58077690  0.53802756  0.66299277     0.13400
H934        H  0.93488406  0.48885019  0.61830213     0.13400
H935        H  0.93813406  0.50014951  0.67726246     0.13400
H936        H  0.75097944  0.49713624  0.61315729     0.26600
H937        H  0.75408389  0.50859507  0.66927141     0.26600
N938        N  0.22815709  0.74573067  0.59320031    -0.36100
N939        N  0.15964941  0.66395912  0.63935306    -0.56700
N940        N  0.22251126  0.74977660  0.68655930    -0.36100
N941        N  0.29370281  0.82984478  0.64010522    -0.56700
C942        C  0.18128748  0.70787323  0.57760193     0.27400
C943        C  0.24773545  0.79733769  0.57915392     0.27400
C944        C  0.17207066  0.71246821  0.70151340     0.27400
C945        C  0.25243900  0.80074418  0.70245823     0.27400
C946        C  0.14203765  0.62873443  0.61482414     0.36100
C947        C  0.12920166  0.63081957  0.66343882     0.36100
C948        C  0.32387719  0.85764333  0.61492063     0.36100
C949        C  0.32634024  0.86100819  0.66374743     0.36100
C950        C  0.17017399  0.73578356  0.55391901    -0.21400
C951        C  0.21230880  0.79287174  0.55505663    -0.21400
C952        C  0.17058182  0.74126861  0.72738839    -0.21400
C953        C  0.22050866  0.79584378  0.72792602    -0.21400
C954        C  0.10173258  0.57290902  0.62335818    -0.22500
C955        C  0.09202263  0.57431397  0.65352572    -0.22500
C956        C  0.37566936  0.90605357  0.62247525    -0.22500
C957        C  0.37672230  0.90903843  0.65323781    -0.22500
C958        C  0.14834451  0.64874725  0.58447810    -0.17800
C959        C  0.30041785  0.84637371  0.58559537    -0.17800
C960        C  0.30796152  0.85088568  0.69425762    -0.17800
C961        C  0.12960106  0.65260677  0.69301178    -0.17800
H962        H  0.13513203  0.71720857  0.53770362     0.15100
H963        H  0.21713924  0.82695733  0.53955308     0.15100
H964        H  0.13756014  0.72562648  0.74463397     0.15100
H965        H  0.23158322  0.82839435  0.74514589     0.15100
H966        H  0.07612167  0.53690442  0.60850367     0.13400
H967        H  0.05713477  0.53794370  0.66513228     0.13400
H968        H  0.40738107  0.93848999  0.60732605     0.13400
H969        H  0.40957585  0.94488076  0.66593112     0.13400
H970        H  0.24905877  0.73565818  0.61026773     0.26600
H971        H  0.23871855  0.73889545  0.66800550     0.26600
N972        N  0.22480055  0.75033244  0.92260551    -0.36100
N973        N  0.29309242  0.83545176  0.87578848    -0.56700
N974        N  0.22739335  0.75225878  0.82970219    -0.36100
N975        N  0.16018313  0.66625979  0.87653150    -0.56700
C976        C  0.24655443  0.80125174  0.93740218     0.27400
C977        C  0.17800568  0.71154527  0.93856595     0.27400
C978        C  0.27267800  0.79177924  0.81266965     0.27400
C979        C  0.19776491  0.70353801  0.81292786     0.27400
C980        C  0.32107203  0.86581616  0.90068877     0.36100
C981        C  0.32492553  0.86709350  0.85174193     0.36100
C982        C  0.13275897  0.63277796  0.90111787     0.36100
C983        C  0.13030255  0.63560863  0.85199823     0.36100
C984        C  0.21270229  0.79511920  0.96237021    -0.21400
C985        C  0.16968830  0.73834115  0.96327788    -0.21400
C986        C  0.27163114  0.76684471  0.78505213    -0.21400
C987        C  0.22488385  0.71179219  0.78525885    -0.21400
C988        C  0.37119923  0.91605736  0.89238571    -0.22500
C989        C  0.37354982  0.91685598  0.86151526    -0.22500
C990        C  0.08659620  0.58017822  0.89197223    -0.22500
C991        C  0.08462319  0.58218678  0.86106684    -0.22500
C992        C  0.29877009  0.85200334  0.93044817    -0.17800
C993        C  0.14159329  0.65264484  0.93141469    -0.17800
C994        C  0.14523585  0.65330303  0.82140032    -0.17800
C995        C  0.31408718  0.84973589  0.82119798    -0.17800
H996        H  0.21866802  0.82810478  0.97845678     0.15100
H997        H  0.13545607  0.71936347  0.97997783     0.15100
H998        H  0.30073277  0.78473518  0.76607146     0.15100
H999        H  0.21376555  0.68180141  0.76680314     0.15100
H1000       H  0.40259504  0.94920753  0.90699155     0.13400
H1001       H  0.40867482  0.94874182  0.84783973     0.13400
H1002       H  0.05472717  0.54564038  0.90612214     0.13400
H1003       H  0.05297437  0.54792702  0.84697589     0.13400
H1004       H  0.24410202  0.74124643  0.90465193     0.26600
H1005       H  0.21323091  0.75994634  0.85006120     0.26600
N1006       N  0.47059677  0.24130746  0.59698716    -0.36100
N1007       N  0.45008699  0.15670313  0.64408987    -0.56700
N1008       N  0.46820647  0.24086800  0.68991904    -0.36100
N1009       N  0.48673731  0.32483086  0.64297111    -0.56700
C1010       C  0.44082548  0.19009579  0.58260811     0.27400
C1011       C  0.46155590  0.27951683  0.58102624     0.27400
C1012       C  0.44334642  0.19033470  0.70597566     0.27400
C1013       C  0.45848854  0.27881715  0.70539149     0.27400
C1014       C  0.45188089  0.12729122  0.61977991     0.36100
C1015       C  0.45187498  0.12690165  0.66867354     0.36100
C1016       C  0.49649050  0.35883373  0.61804192     0.36100
C1017       C  0.49209494  0.35793761  0.66729564     0.36100
C1018       C  0.41133026  0.19523966  0.55796645    -0.21400
C1019       C  0.42477074  0.25202662  0.55680646    -0.21400
C1020       C  0.41635672  0.19568500  0.73133501    -0.21400
C1021       C  0.42565746  0.25166529  0.73084786    -0.21400
C1022       C  0.45401004  0.07842369  0.62904253    -0.22500
C1023       C  0.45429376  0.07832910  0.66001777    -0.22500
C1024       C  0.50648110  0.41296492  0.62675740    -0.22500
C1025       C  0.50396396  0.41240334  0.65778671    -0.22500
C1026       C  0.44387657  0.14028777  0.58969213    -0.17800
C1027       C  0.48543248  0.33863815  0.58770315    -0.17800
C1028       C  0.47999759  0.33774840  0.69768836    -0.17800
C1029       C  0.44637472  0.14037395  0.69869915    -0.17800
H1030       H  0.38360601  0.16168178  0.54225355     0.15100
H1031       H  0.40858114  0.27065955  0.54020126     0.15100
H1032       H  0.39247200  0.16262708  0.74838519     0.15100
H1033       H  0.41025493  0.27046491  0.74741140     0.15100
H1034       H  0.45243688  0.04464109  0.61505028     0.13400
H1035       H  0.45416480  0.04518510  0.67450233     0.13400
H1036       H  0.50922080  0.44716925  0.61219360     0.13400
H1037       H  0.50565786  0.44627415  0.67169262     0.13400
H1038       H  0.50028760  0.25109483  0.61456223     0.26600
H1039       H  0.49606028  0.25075555  0.67152111     0.26600
N1040       N  0.47201659  0.24622827  0.92533916    -0.36100
N1041       N  0.45641632  0.16147687  0.87945858    -0.56700
N1042       N  0.45288430  0.23514229  0.83212224    -0.36100
N1043       N  0.47812164  0.32476481  0.87868723    -0.56700
C1044       C  0.44357773  0.19516698  0.94043956     0.27400
C1045       C  0.46203071  0.28356619  0.94086864     0.27400
C1046       C  0.46336280  0.19762464  0.81585681     0.27400
C1047       C  0.47163818  0.28519306  0.81545410     0.27400
C1048       C  0.45778180  0.13323546  0.90484210     0.36100
C1049       C  0.45278203  0.12723435  0.85621252     0.36100
C1050       C  0.49069271  0.36053445  0.90270122     0.36100
C1051       C  0.47591512  0.35486151  0.85429498     0.36100
C1052       C  0.41383699  0.19952752  0.96493748    -0.21400
C1053       C  0.42591671  0.25573154  0.96536908    -0.21400
C1054       C  0.49036232  0.22516703  0.78912869    -0.21400
C1055       C  0.49554316  0.27976542  0.78891352    -0.21400
C1056       C  0.45737530  0.08262597  0.89753638    -0.22500
C1057       C  0.45241530  0.07797563  0.86694093    -0.22500
C1058       C  0.49753967  0.41356845  0.89327269    -0.22500
C1059       C  0.48676385  0.40951540  0.86289177    -0.22500
C1060       C  0.44772891  0.14610069  0.93422012    -0.17800
C1061       C  0.48420543  0.34218561  0.93340700    -0.17800
C1062       C  0.47070042  0.33691963  0.82395378    -0.17800
C1063       C  0.45341913  0.14110419  0.82535096    -0.17800
H1064       H  0.38680126  0.16584734  0.98108277     0.15100
H1065       H  0.40916723  0.27371866  0.98162922     0.15100
H1066       H  0.50760686  0.20909068  0.77218298     0.15100
H1067       H  0.51729101  0.31286768  0.77173110     0.15100
H1068       H  0.45720268  0.05047800  0.91280702     0.13400
H1069       H  0.44994004  0.04270868  0.85411851     0.13400
H1070       H  0.50535394  0.44997552  0.90718593     0.13400
H1071       H  0.48813708  0.44366605  0.84869584     0.13400
H1072       H  0.50118799  0.25654793  0.90750369     0.26600
H1073       H  0.43075893  0.22604599  0.85265138     0.26600
N1074       N  0.43152736  0.43175841  0.55551005    -0.36100
N1075       N  0.48544893  0.39927759  0.51053314    -0.56700
N1076       N  0.43308564  0.43615583  0.96560525    -0.36100
N1077       N  0.39356049  0.48350837  0.51091215    -0.56700
C1078       C  0.43369149  0.38622538  0.56775465     0.27400
C1079       C  0.38467109  0.43011414  0.56768519     0.27400
C1080       C  0.43374456  0.39008547  0.95378180     0.27400
C1081       C  0.38606709  0.43524081  0.95389042     0.27400
C1082       C  0.50580980  0.38459824  0.53504543     0.36100
C1083       C  0.50611113  0.38660864  0.98579051     0.36100
C1084       C  0.37830637  0.50185436  0.53569332     0.36100
C1085       C  0.37992228  0.50482866  0.98630326     0.36100
C1086       C  0.38698748  0.35438325  0.58692682    -0.21400
C1087       C  0.35566947  0.38202839  0.58673322    -0.21400
C1088       C  0.38564904  0.35835107  0.93558840    -0.21400
C1089       C  0.35526577  0.38698747  0.93572437    -0.21400
C1090       C  0.54290260  0.36528615  0.52595472    -0.22500
C1091       C  0.54312224  0.36660170  0.99455091    -0.22500
C1092       C  0.35739936  0.53825010  0.52693635    -0.22500
C1093       C  0.35846302  0.54018855  0.99553408    -0.22500
C1094       C  0.47940574  0.37547782  0.56381324    -0.17800
C1095       C  0.37110840  0.47444488  0.56437749    -0.17800
C1096       C  0.37337575  0.47990413  0.95723068    -0.17800
C1097       C  0.47939654  0.37896205  0.95716244    -0.17800
H1098       H  0.37705724  0.31581066  0.60010959     0.15100
H1099       H  0.31692018  0.36921930  0.59985225     0.15100
H1100       H  0.37430055  0.31931113  0.92302127     0.09100
H1101       H  0.31582171  0.37460075  0.92325727     0.15100
H1102       H  0.56306619  0.34699558  0.54019133     0.13400
H1103       H  0.56342886  0.34941841  0.98005779     0.13400
H1104       H  0.33865645  0.55708702  0.54139428     0.13400
H1105       H  0.34054803  0.56070314  0.98127080     0.13400
H1106       H  0.46388771  0.46580090  0.54272200     0.26600
H1107       H  0.46625801  0.46991246  0.97789814     0.26600
N1108       N  0.23898215  0.47057570  0.92584260    -0.36100
N1109       N  0.31973722  0.48681473  0.87793739    -0.56700
N1110       N  0.23166065  0.46706463  0.83190396    -0.36100
N1111       N  0.15246819  0.45272194  0.88048872    -0.56700
C1112       C  0.27756543  0.46133609  0.94101957     0.27400
C1113       C  0.18903830  0.44149837  0.94152937     0.27400
C1114       C  0.28316153  0.49609454  0.81696932     0.27400
C1115       C  0.19497844  0.48244323  0.81861988     0.27400
C1116       C  0.35358876  0.49205802  0.90214958     0.36100
C1117       C  0.34896834  0.48688791  0.85281022     0.36100
C1118       C  0.12445936  0.45281935  0.90588852     0.36100
C1119       C  0.11891779  0.45143707  0.85709627     0.36100
C1120       C  0.25141453  0.42491924  0.96586621    -0.21400
C1121       C  0.19534151  0.41213545  0.96605615    -0.21400
C1122       C  0.28006041  0.53267519  0.79550842    -0.21400
C1123       C  0.22459215  0.52372767  0.79637070    -0.21400
C1124       C  0.40441620  0.49583222  0.89207589    -0.22500
C1125       C  0.40128906  0.49203516  0.86114413    -0.22500
C1126       C  0.07451210  0.45347709  0.89839058    -0.22500
C1127       C  0.07026902  0.45088593  0.86763588    -0.22500
C1128       C  0.33580635  0.48421154  0.93314692    -0.17800
C1129       C  0.13896988  0.44404427  0.93553157    -0.17800
C1130       C  0.13605007  0.46169415  0.82664332    -0.17800
C1131       C  0.33253642  0.49012658  0.82251879    -0.17800
H1132       H  0.27036240  0.40825163  0.98198604     0.15100
H1133       H  0.16294869  0.38458258  0.98252165     0.15100
H1134       H  0.31508962  0.56575229  0.78216248     0.15100
H1135       H  0.20932173  0.54830842  0.78363950     0.15100
H1136       H  0.43909075  0.49770231  0.90556411     0.13400
H1137       H  0.43471640  0.49440026  0.84657873     0.13400
H1138       H  0.04388762  0.45502994  0.91358207     0.13400
H1139       H  0.03791624  0.45356425  0.85433667     0.13400
H1140       H  0.24774615  0.49965327  0.90782778     0.26600
H1141       H  0.22092908  0.43505661  0.84859471     0.26600
N1142       N  0.23851617  0.46340494  0.59930873    -0.36100
N1143       N  0.31963870  0.46872196  0.64423191    -0.56700
N1144       N  0.23537893  0.44667652  0.69389627    -0.36100
N1145       N  0.15674945  0.44634189  0.64703738    -0.56700
C1146       C  0.27606950  0.45551562  0.58258509     0.27400
C1147       C  0.18708772  0.43423591  0.58500802     0.27400
C1148       C  0.28887337  0.46933036  0.70681889     0.27400
C1149       C  0.20858363  0.47355451  0.70686033     0.27400
C1150       C  0.35438452  0.48388431  0.61951345     0.36100
C1151       C  0.35079197  0.46520465  0.66766614     0.36100
C1152       C  0.12409585  0.44258114  0.62268653     0.36100
C1153       C  0.12716702  0.44695033  0.67168789     0.36100
C1154       C  0.24805516  0.42001159  0.55814322    -0.21400
C1155       C  0.19165245  0.40604341  0.55988056    -0.21400
C1156       C  0.29689152  0.51252317  0.72638411    -0.21400
C1157       C  0.24695397  0.51545734  0.72633115    -0.21400
C1158       C  0.40782221  0.49128399  0.62775092    -0.22500
C1159       C  0.40486618  0.47764332  0.65786463    -0.22500
C1160       C  0.07368198  0.44045892  0.63207263    -0.22500
C1161       C  0.07506379  0.44208287  0.66294249    -0.22500
C1162       C  0.33488074  0.47830205  0.58903485    -0.17800
C1163       C  0.13723385  0.43630868  0.59240383    -0.17800
C1164       C  0.15129744  0.46289272  0.70088738    -0.17800
C1165       C  0.33489980  0.45995272  0.69835948    -0.17800
H1166       H  0.26600508  0.40461327  0.54112336     0.15100
H1167       H  0.15785784  0.37872423  0.54416782     0.15100
H1168       H  0.33745890  0.54414197  0.73618120     0.15100
H1169       H  0.24252095  0.54954462  0.73661178     0.15100
H1170       H  0.44379108  0.50092606  0.61308634     0.13400
H1171       H  0.43948502  0.47898852  0.67122760     0.13400
H1172       H  0.03911950  0.43826537  0.61833269     0.13400
H1173       H  0.04253456  0.44305140  0.67690846     0.13400
H1174       H  0.24885176  0.49170078  0.61747084     0.26600
H1175       H  0.21770555  0.41331489  0.67802536     0.26600
N1176       N  0.99341159  0.38334769  0.96828994    -0.36100
N1177       N  0.07950969  0.42668216  0.51400374    -0.56700
N1178       N  0.99245877  0.38101690  0.55786823    -0.36100
N1179       N  0.90721403  0.34960775  0.51197000    -0.56700
C1180       C  0.03914473  0.38312010  0.95600950     0.27400
C1181       C  0.94610497  0.34173514  0.95433742     0.27400
C1182       C  0.03715239  0.37983261  0.57128061     0.27400
C1183       C  0.94420246  0.33760264  0.57032217     0.27400
C1184       C  0.11235898  0.45312102  0.98958370     0.36100
C1185       C  0.11158293  0.45170226  0.53874561     0.36100
C1186       C  0.87522077  0.34434042  0.98725628     0.36100
C1187       C  0.87477436  0.34292952  0.53645933     0.36100
C1188       C  0.02085591  0.33934368  0.93473152    -0.21400
C1189       C  0.96148212  0.31306364  0.93359513    -0.21400
C1190       C  0.01729818  0.33362638  0.59167632    -0.21400
C1191       C  0.95792266  0.30691066  0.59123451    -0.21400
C1192       C  0.16595042  0.49793826  0.99871180    -0.22500
C1193       C  0.16545416  0.49710216  0.53009505    -0.22500
C1194       C  0.82210727  0.33683677  0.99601987    -0.22500
C1195       C  0.82181310  0.33587725  0.52740631    -0.22500
C1196       C  0.09611132  0.42821820  0.96055407    -0.17800
C1197       C  0.89081665  0.33446849  0.95829348    -0.17800
C1198       C  0.88936904  0.33076159  0.56540125    -0.17800
C1199       C  0.09447340  0.42460988  0.56759041    -0.17800
H1200       H  0.04768478  0.32963630  0.92046427     0.15100
H1201       H  0.93313976  0.27850304  0.91851936     0.15100
H1202       H  0.04292298  0.32225372  0.60626508     0.15100
H1203       H  0.92835835  0.27049011  0.60535052     0.15100
H1204       H  0.20263473  0.52576376  0.98446785     0.13400
H1205       H  0.20163023  0.52406933  0.54466331     0.13400
H1206       H  0.78602569  0.32862898  0.98153666     0.13400
H1207       H  0.78536873  0.32668171  0.54170893     0.13400
H1208       H  0.99514594  0.41604152  0.98194683     0.26600
H1209       H  0.99486674  0.41477355  0.54432463     0.26600
N1210       N  0.38220879  0.99472230  0.55485109    -0.36100
N1211       N  0.34462407  0.90982039  0.50840823    -0.56700
N1212       N  0.38128619  0.99782253  0.96558052    -0.36100
N1213       N  0.43129996  0.08285634  0.51176724    -0.56700
C1214       C  0.33747993  0.94685362  0.56687870     0.27400
C1215       C  0.38496790  0.04036148  0.56918014     0.27400
C1216       C  0.33822658  0.95208015  0.95127560     0.27400
C1217       C  0.38407267  0.04579314  0.95362769     0.27400
C1218       C  0.33858456  0.87649885  0.53266575     0.36100
C1219       C  0.33832383  0.87822917  0.98370859     0.36100
C1220       C  0.45705968  0.11458152  0.53643953     0.36100
C1221       C  0.45721240  0.11629222  0.98739849     0.36100
C1222       C  0.31004773  0.96186092  0.58859278    -0.21400
C1223       C  0.34030948  0.02164576  0.58999965    -0.21400
C1224       C  0.31181584  0.97081742  0.93048061    -0.21400
C1225       C  0.34104177  0.03067490  0.93199788    -0.21400
C1226       C  0.33085842  0.82324325  0.52352996    -0.22500
C1227       C  0.33083957  0.82441567  0.99221537    -0.22500
C1228       C  0.50234173  0.16874233  0.52779866    -0.22500
C1229       C  0.50249885  0.16978500  0.99645643    -0.22500
C1230       C  0.32805881  0.89098512  0.56153634    -0.17800
C1231       C  0.43082465  0.09733900  0.56524161    -0.17800
C1232       C  0.43115661  0.10165057  0.95858859    -0.17800
C1233       C  0.32784721  0.89512461  0.95506404    -0.17800
H1234       H  0.27376941  0.93270355  0.60275160     0.15100
H1235       H  0.33181489  0.04809205  0.60524756     0.15100
H1236       H  0.27692978  0.94436541  0.91510218     0.15100
H1237       H  0.33367789  0.05982823  0.91775272     0.15100
H1238       H  0.32212624  0.78619995  0.53774678     0.13400
H1239       H  0.32223241  0.78851200  0.97761931     0.13400
H1240       H  0.52953509  0.20485682  0.54233956     0.13400
H1241       H  0.52987001  0.20697832  0.98219927     0.13400
H1242       H  0.41422764  0.99556039  0.54099397     0.26600
H1243       H  0.41302021  0.99700380  0.97919754     0.26600
N1244       N  0.99519579  0.56143458  0.96534612    -0.36100
N1245       N  0.08404283  0.59179536  0.50860197    -0.56700
N1246       N  0.99874824  0.55695881  0.55600382    -0.36100
N1247       N  0.90911260  0.51339049  0.51186065    -0.56700
C1248       C  0.04210736  0.60519220  0.95169996     0.27400
C1249       C  0.94925350  0.56307412  0.95382613     0.27400
C1250       C  0.04744517  0.60107566  0.56771993     0.27400
C1251       C  0.95466396  0.55892263  0.56956961     0.27400
C1252       C  0.11709666  0.60531541  0.98349466     0.36100
C1253       C  0.11933832  0.60388160  0.53264835     0.36100
C1254       C  0.87382058  0.49374796  0.98758161     0.36100
C1255       C  0.87595249  0.49251006  0.53691020     0.36100
C1256       C  0.02600785  0.63590917  0.93213717    -0.21400
C1257       C  0.96706514  0.60927499  0.93356741    -0.21400
C1258       C  0.03421661  0.63211520  0.58809014    -0.21400
C1259       C  0.97545725  0.60563106  0.58910224    -0.21400
C1260       C  0.17382197  0.62330907  0.99156022    -0.22500
C1261       C  0.17528410  0.62268523  0.52285809    -0.22500
C1262       C  0.81735838  0.45730077  0.99713960    -0.22500
C1263       C  0.81868082  0.45656693  0.52850985    -0.22500
C1264       C  0.09872765  0.61552822  0.95514755    -0.17800
C1265       C  0.89167360  0.51930764  0.95841102    -0.17800
C1266       C  0.89603964  0.51769759  0.56577800    -0.17800
C1267       C  0.10360290  0.61202962  0.56185727    -0.17800
H1268       H  0.05374814  0.67297556  0.91789046     0.15100
H1269       H  0.94016438  0.62120047  0.92042208     0.15100
H1270       H  0.06382616  0.66993316  0.60099434     0.15100
H1271       H  0.95086455  0.61901957  0.60286329     0.15100
H1272       H  0.21101665  0.64045744  0.97670176     0.13400
H1273       H  0.21381899  0.63911699  0.53667978     0.13400
H1274       H  0.77886262  0.43737099  0.98320783     0.13400
H1275       H  0.78137806  0.43603363  0.54331448     0.13400
H1276       H  0.99396906  0.52799074  0.97863526     0.26600
H1277       H  0.99579303  0.52409032  0.54206717     0.26600
N1278       N  0.61034494  0.61203657  0.55426121    -0.36100
N1279       N  0.55609663  0.64571973  0.51200426    -0.56700
N1280       N  0.60517490  0.61082428  0.96462010    -0.36100
N1281       N  0.64902687  0.56611714  0.50740527    -0.56700
C1282       C  0.60420713  0.65220977  0.56944174     0.27400
C1283       C  0.65697443  0.61209643  0.56570997     0.27400
C1284       C  0.60044663  0.65490148  0.95264160     0.27400
C1285       C  0.64812527  0.60928971  0.94963092     0.27400
C1286       C  0.52999239  0.65032844  0.53694404     0.36100
C1287       C  0.52877552  0.65168281  0.98783680     0.36100
C1288       C  0.65727135  0.54067990  0.53181806     0.36100
C1289       C  0.65329731  0.53918075  0.98286573     0.36100
C1290       C  0.64848392  0.67964755  0.59033437    -0.21400
C1291       C  0.68223978  0.65415457  0.58791406    -0.21400
C1292       C  0.64200479  0.68315091  0.93027270    -0.21400
C1293       C  0.67246436  0.65408659  0.92839277    -0.21400
C1294       C  0.48353217  0.65705404  0.52862123    -0.22500
C1295       C  0.48284920  0.65807700  0.99729652    -0.22500
C1296       C  0.66451891  0.49474207  0.52302818    -0.22500
C1297       C  0.66197549  0.49379958  0.99173727    -0.22500
C1298       C  0.55636394  0.66008966  0.56579336    -0.17800
C1299       C  0.66840613  0.56684924  0.56044994    -0.17800
C1300       C  0.66110282  0.56457764  0.95372367    -0.17800
C1301       C  0.55350545  0.66306435  0.95863347    -0.17800
H1302       H  0.65461382  0.71295305  0.60623910     0.15100
H1303       H  0.71891614  0.66290736  0.60205266     0.15100
H1304       H  0.64800603  0.71924015  0.91600766     0.15100
H1305       H  0.70706458  0.66352548  0.91264871     0.15100
H1306       H  0.45575626  0.66450546  0.54338918     0.13400
H1307       H  0.45442754  0.66648289  0.98325617     0.13400
H1308       H  0.67430223  0.46744386  0.53738353     0.13400
H1309       H  0.66950466  0.46566308  0.97726518     0.13400
H1310       H  0.57919909  0.57982902  0.54039555     0.26600
H1311       H  0.57516224  0.57844072  0.97911376     0.26600
O1312       O  0.49214281  0.61652120  0.74355316    -0.79700
O1313       O  0.53765584  0.39744805  0.73831995    -0.79700
O1314       O  0.64923973  0.58308615  0.73416385    -0.79700
O1315       O  0.37265567  0.42598213  0.73886089    -0.79600
O1316       O  0.58052106  0.50343327  0.71476961    -0.79800
O1317       O  0.42641876  0.51418022  0.72500761    -0.79700
O1318       O  0.45611302  0.39966061  0.72759499    -0.79700
O1319       O  0.57534255  0.63100201  0.72451752    -0.79700
C1320       C  0.53193980  0.63891669  0.72386694     1.10000
C1321       C  0.49125349  0.37958651  0.72275291     1.09900
C1322       C  0.63347659  0.54290544  0.71520476     1.10000
C1323       C  0.37937079  0.46688922  0.72182604     1.09900
O1324       O  0.39170900  0.53963443  0.77863405    -0.79700
O1325       O  0.62178468  0.49862988  0.77445562    -0.79700
O1326       O  0.57972929  0.65330623  0.78706019    -0.79700
O1327       O  0.43079768  0.37602972  0.78766468    -0.79700
O1328       O  0.52216807  0.42639697  0.79498707    -0.79700
O1329       O  0.49481895  0.58768206  0.80442829    -0.79700
O1330       O  0.39357356  0.46052901  0.79504230    -0.79600
O1331       O  0.63144361  0.57862809  0.79624170    -0.79700
Co1332     Co  0.46186477  0.54351729  0.76634972     1.51500
Co1333     Co  0.54432188  0.46642863  0.75418195     1.51700
Co1334     Co  0.60224480  0.60504134  0.76079409     1.51600
Co1335     Co  0.44342206  0.44497817  0.76302386     1.51500
O1336       O  0.52453277  0.52609933  0.76265962    -1.41600
C1337       C  0.37317882  0.49633802  0.79692901     1.09900
C1338       C  0.64255967  0.53666328  0.79537133     1.10000
C1339       C  0.53675023  0.64014828  0.80407266     1.10000
C1340       C  0.47485047  0.38043288  0.80040170     1.09900
O1341       O  0.48481589  0.91511698  0.79529120    -0.79700
O1342       O  0.49014619  0.08303324  0.80292017    -0.79700
O1343       O  0.57840320  0.06055155  0.79749525    -0.79700
O1344       O  0.36255443  0.94499684  0.79746675    -0.79600
O1345       O  0.59148870  0.14464624  0.77716494    -0.79800
O1346       O  0.37476266  0.87547898  0.77792392    -0.79700
O1347       O  0.40800485  0.06867565  0.78599801    -0.79700
O1348       O  0.57613287  0.95156834  0.78425133    -0.79700
C1349       C  0.53218092  0.91396719  0.79938999     1.10000
C1350       C  0.45116610  0.09660248  0.80314341     1.09900
C1351       C  0.60500202  0.11817309  0.79715699     1.10000
C1352       C  0.35251001  0.89258838  0.79758871     1.09900
O1353       O  0.40283065  0.90728655  0.71670172    -0.79700
O1354       O  0.56099028  0.08950830  0.72330933    -0.79700
O1355       O  0.52113144  0.93362344  0.72854760    -0.79700
O1356       O  0.40434116  0.04819667  0.72425612    -0.79700
O1357       O  0.48780050  0.12186535  0.74198482    -0.79700
O1358       O  0.44704571  0.85013044  0.74466723    -0.79700
O1359       O  0.33603899  0.92325347  0.73465682    -0.79600
O1360       O  0.60968938  0.04921105  0.73835684    -0.79700
Co1361     Co  0.44758674  0.91908463  0.75474335     1.51500
Co1362     Co  0.52339936  0.07976270  0.76326618     1.51700
Co1363     Co  0.53993151  0.99337205  0.76432134     1.51600
Co1364     Co  0.38445594  0.99626259  0.76050677     1.51500
O1365       O  0.46499025  0.00126529  0.75590658    -1.41600
C1366       C  0.35043639  0.89530740  0.71687667     1.09900
C1367       C  0.60616855  0.08595995  0.72110689     1.10000
C1368       C  0.48894289  0.87725863  0.72629138     1.10000
C1369       C  0.44541019  0.10132591  0.72328170     1.09900
O1370       O  0.87738223  0.40521407  0.78926982    -0.79700
O1371       O  0.12117214  0.60186541  0.77412450    -0.79700
O1372       O  0.04906243  0.41818818  0.79564552    -0.79700
O1373       O  0.93132978  0.55040259  0.79390971    -0.79600
O1374       O  0.10508857  0.51056566  0.79245237    -0.79800
O1375       O  0.87739873  0.45418061  0.78761047    -0.79700
O1376       O  0.05051131  0.60087391  0.80030867    -0.79700
O1377       O  0.93027766  0.36393471  0.79281567    -0.79700
C1378       C  0.88579052  0.36613684  0.80089362     1.10000
C1379       C  0.10373192  0.61675218  0.79737367     1.09900
C1380       C  0.09461872  0.46325722  0.80374764     1.10000
C1381       C  0.88705083  0.50181228  0.80037311     1.09900
O1382       O  0.87343557  0.47974889  0.73749067    -0.79700
O1383       O  0.14231868  0.52675717  0.73621253    -0.79700
O1384       O  0.93342708  0.37220710  0.72611559    -0.79700
O1385       O  0.06598867  0.62712670  0.73715048    -0.79700
O1386       O  0.06604881  0.55570626  0.71516227    -0.79700
O1387       O  0.85429620  0.37667430  0.73484035    -0.79700
O1388       O  0.94666497  0.56598239  0.72826938    -0.79600
O1389       O  0.06393692  0.43847348  0.73023075    -0.79700
Co1390     Co  0.91909546  0.44349667  0.75125155     1.51500
Co1391     Co  0.07654707  0.52412090  0.75382777     1.51700
Co1392     Co  0.99436925  0.41084209  0.76179628     1.51600
Co1393     Co  0.99774997  0.57794865  0.76512794     1.51500
O1394       O  0.99641370  0.49647140  0.76793501    -1.41600
C1395       C  0.89407776  0.52771692  0.72386369     1.09900
C1396       C  0.11829416  0.47670305  0.72412224     1.10000
C1397       C  0.87799219  0.35174426  0.72219728     1.10000
C1398       C  0.08411713  0.60984288  0.71560674     1.09900
loop_ 
_geom_bond_atom_site_label_1 
_geom_bond_atom_site_label_2 
_geom_bond_distance 
_geom_bond_site_symmetry_2 
_ccdc_geom_bond_type 
N1            C6   1.348       .  A
N1            C5   1.352       .  A
N1           H33   1.042       .  S
N2            C9   1.353       .  A
N2           C10   1.350       .  A
N3            C8   1.359       .  A
N3            C7   1.356       .  A
N3           H34   1.038       .  S
N4           C11   1.359       .  A
N4           C12   1.363       .  A
C5           C13   1.385       .  A
C5           C21   1.402       .  A
C6           C22   1.405       .  A
C6           C14   1.390       .  A
C7           C15   1.389       .  A
C7           C24   1.423       .  A
C8           C23   1.417       .  A
C8           C16   1.383       .  A
C9           C21   1.413       .  A
C9           C17   1.382       .  A
C10          C24   1.414       .  A
C10          C18   1.384       .  A
C11          C19   1.386       .  A
C11          C22   1.435       .  A
C12          C20   1.379       .  A
C12          C23   1.426       .  A
C13          C14   1.360       .  A
C13          H25   1.082       .  S
C14          H26   1.082       .  S
C15          C16   1.354       .  A
C15          H27   1.076       .  S
C16          H28   1.077       .  S
C17          C18   1.370       .  A
C17          H29   1.079       .  S
C18          H30   1.079       .  S
C19          C20   1.372       .  A
C19          H31   1.079       .  S
C20          H32   1.078       .  S
C21         C599   1.497       .  S
C22         C157   1.506       .  S
C23         C669   1.511       .  S
C24         C621   1.486       .  S
N35          C40   1.342       .  A
N35          C39   1.345       .  A
N35          H67   1.043       .  S
N36          C43   1.353       .  A
N36          C44   1.351       .  A
N37          C42   1.375       .  A
N37          C41   1.374       .  A
N37          H68   1.038       .  S
N38          C45   1.362       .  A
N38          C46   1.361       .  A
C39          C47   1.385       .  A
C39          C55   1.390       .  A
C40          C56   1.393       .  A
C40          C48   1.389       .  A
C41          C49   1.388       .  A
C41          C58   1.462       .  A
C42          C57   1.459       .  A
C42          C50   1.387       .  A
C43          C55   1.406       .  A
C43          C51   1.378       .  A
C44          C58   1.414       .  A
C44          C52   1.389       .  A
C45          C53   1.381       .  A
C45          C56   1.430       .  A
C46          C54   1.388       .  A
C46          C57   1.435       .  A
C47          C48   1.359       .  A
C47          H59   1.082       .  S
C48          H60   1.082       .  S
C49          C50   1.398       .  A
C49          H61   1.082       .  S
C50          H62   1.082       .  S
C51          C52   1.360       .  A
C51          H63   1.080       .  S
C52          H64   1.079       .  S
C53          C54   1.373       .  A
C53          H65   1.078       .  S
C54          H66   1.080       .  S
C55         C602   1.484       .  S
C56         C160   1.500       .  S
C57         C650   1.545       .  S
C58         C640   1.531       .  S
N69          C74   1.347       .  A
N69          C73   1.350       .  A
N69         H101   1.043       .  S
N70          C77   1.354       .  A
N70          C78   1.352       .  A
N71          C76   1.364       .  A
N71          C75   1.363       .  A
N71         H102   1.042       .  S
N72          C79   1.359       .  A
N72          C80   1.360       .  A
C73          C81   1.385       .  A
C73          C89   1.399       .  A
C74          C90   1.402       .  A
C74          C82   1.389       .  A
C75          C83   1.380       .  A
C75          C92   1.427       .  A
C76          C91   1.434       .  A
C76          C84   1.389       .  A
C77          C89   1.415       .  A
C77          C85   1.381       .  A
C78          C92   1.408       .  A
C78          C86   1.377       .  A
C79          C87   1.383       .  A
C79          C90   1.427       .  A
C80          C88   1.384       .  A
C80          C91   1.425       .  A
C81          C82   1.361       .  A
C81          H93   1.082       .  S
C82          H94   1.082       .  S
C83          C84   1.372       .  A
C83          H95   1.076       .  S
C84          H96   1.078       .  S
C85          C86   1.366       .  A
C85          H97   1.078       .  S
C86          H98   1.075       .  S
C87          C88   1.368       .  A
C87          H99   1.078       .  S
C88         H100   1.077       .  S
C89         C498   1.496       .  S
C90         C159   1.500       .  S
C91         C652   1.519       .  S
C92         C679   1.504       .  S
N103        C108   1.345       .  A
N103        C107   1.343       .  A
N103        H135   1.043       .  S
N104        C111   1.357       .  A
N104        C112   1.356       .  A
N105        C110   1.365       .  A
N105        C109   1.369       .  A
N105        H136   1.033       .  S
N106        C113   1.353       .  A
N106        C114   1.352       .  A
C107        C115   1.389       .  A
C107        C123   1.395       .  A
C108        C124   1.392       .  A
C108        C116   1.386       .  A
C109        C117   1.387       .  A
C109        C126   1.445       .  A
C110        C125   1.442       .  A
C110        C118   1.385       .  A
C111        C123   1.421       .  A
C111        C119   1.381       .  A
C112        C126   1.424       .  A
C112        C120   1.385       .  A
C113        C121   1.380       .  A
C113        C124   1.410       .  A
C114        C122   1.386       .  A
C114        C125   1.414       .  A
C115        C116   1.360       .  A
C115        H127   1.082       .  S
C116        H128   1.082       .  S
C117        C118   1.391       .  A
C117        H129   1.082       .  S
C118        H130   1.082       .  S
C119        C120   1.368       .  A
C119        H131   1.078       .  S
C120        H132   1.079       .  S
C121        C122   1.368       .  A
C121        H133   1.080       .  S
C122        H134   1.080       .  S
C123        C158   1.490       .  S
C124        C499   1.484       .  S
C125        C698   1.507       .  S
C126        C668   1.522       .  S
N137        C142   1.342   1_565  A
N137        C141   1.345       .  A
N137        H169   1.046       .  S
N138        C145   1.354       .  A
N138        C845   1.351   1_554  A
N139        C144   1.347   1_565  A
N139        C143   1.343       .  A
N139        H170   1.045       .  S
N140        C147   1.347       .  A
N140        C847   1.349   1_554  A
C141        C149   1.387       .  A
C141        C157   1.395       .  A
C142        C158   1.397       .  A
C142        C150   1.388       .  A
C143        C151   1.389       .  A
C143        C160   1.399       .  A
C144        C159   1.397       .  A
C144        C152   1.386       .  A
C145        C157   1.425       .  A
C145        C153   1.386       .  A
C146        N837   1.351       .  A
C146        C160   1.426       .  A
C146        C154   1.388       .  A
C147        C155   1.387       .  A
C147        C158   1.416       .  A
C148        N839   1.349       .  A
C148        C156   1.386       .  A
C148        C159   1.417       .  A
C149        C150   1.362   1_565  A
C149        H161   1.082       .  S
C150        H162   1.082       .  S
C151        C152   1.362   1_565  A
C151        H163   1.082       .  S
C152        H164   1.082       .  S
C153        C853   1.389   1_554  A
C153        H165   1.082       .  S
C154        C852   1.389       .  A
C154        H166   1.082       .  S
C155        C855   1.386   1_554  A
C155        H167   1.082       .  S
C156        C854   1.386       .  A
C156        H168   1.082       .  S
N171        C176   1.351       .  A
N171        C175   1.350       .  A
N171        H203   1.043       .  S
N172        C179   1.354       .  A
N172        C180   1.354       .  A
N173        C178   1.359       .  A
N173        C177   1.363       .  A
N173        H204   1.040       .  S
N174        C181   1.356       .  A
N174        C182   1.356       .  A
C175        C183   1.386       .  A
C175        C191   1.404       .  A
C176        C192   1.406       .  A
C176        C184   1.388       .  A
C177        C185   1.391       .  A
C177        C194   1.436       .  A
C178        C193   1.418       .  A
C178        C186   1.379       .  A
C179        C191   1.416       .  A
C179        C187   1.383       .  A
C180        C194   1.420       .  A
C180        C188   1.387       .  A
C181        C189   1.387       .  A
C181        C192   1.426       .  A
C182        C190   1.379       .  A
C182        C193   1.413       .  A
C183        C184   1.363       .  A
C183        H195   1.082       .  S
C184        H196   1.082       .  S
C185        C186   1.374       .  A
C185        H197   1.077       .  S
C186        H198   1.081       .  S
C187        C188   1.368       .  A
C187        H199   1.080       .  S
C188        H200   1.080       .  S
C189        C190   1.368       .  A
C189        H201   1.079       .  S
C190        H202   1.081       .  S
C191        C601   1.497       .  S
C192        C566   1.500       .  S
C193        C682   1.497       .  S
C194        C639   1.512       .  S
N205        C210   1.343       .  A
N205        C209   1.344       .  A
N205        H237   1.046       .  S
N206        C213   1.351       .  A
N206        C214   1.352       .  A
N207        C212   1.365       .  A
N207        C211   1.368       .  A
N207        H238   1.035       .  S
N208        C215   1.358       .  A
N208        C216   1.355       .  A
C209        C217   1.386       .  A
C209        C225   1.394       .  A
C210        C226   1.396       .  A
C210        C218   1.387       .  A
C211        C219   1.388       .  A
C211        C228   1.444       .  A
C212        C227   1.437       .  A
C212        C220   1.384       .  A
C213        C225   1.409       .  A
C213        C221   1.379       .  A
C214        C228   1.409       .  A
C214        C222   1.380       .  A
C215        C223   1.382       .  A
C215        C226   1.423       .  A
C216        C224   1.386       .  A
C216        C227   1.421       .  A
C217        C218   1.364       .  A
C217        H229   1.082       .  S
C218        H230   1.082       .  S
C219        C220   1.389       .  A
C219        H231   1.081       .  S
C220        H232   1.083       .  S
C221        C222   1.358       .  A
C221        H233   1.079       .  S
C222        H234   1.074       .  S
C223        C224   1.371       .  A
C223        H235   1.077       .  S
C224        H236   1.082       .  S
C225        C600   1.482       .  S
C226        C567   1.500       .  S
C227        C696   1.508       .  S
C228        C623   1.516       .  S
N239        C244   1.341       .  A
N239        C243   1.341       .  A
N239        H271   1.044       .  S
N240        C247   1.360       .  A
N240        C248   1.355       .  A
N241        C246   1.377       .  A
N241        C245   1.374       .  A
N241        H272   1.038       .  S
N242        C249   1.351       .  A
N242        C250   1.350       .  A
C243        C251   1.388       .  A
C243        C259   1.391       .  A
C244        C260   1.387       .  A
C244        C252   1.386       .  A
C245        C253   1.395       .  A
C245        C262   1.468       .  A
C246        C261   1.455       .  A
C246        C254   1.381       .  A
C247        C259   1.415       .  A
C247        C255   1.374       .  A
C248        C262   1.433       .  A
C248        C256   1.395       .  A
C249        C257   1.378       .  A
C249        C260   1.404       .  A
C250        C258   1.387       .  A
C250        C261   1.413       .  A
C251        C252   1.362       .  A
C251        H263   1.082       .  S
C252        H264   1.082       .  S
C253        C254   1.393       .  A
C253        H265   1.078       .  S
C254        H266   1.082       .  S
C255        C256   1.364       .  A
C255        H267   1.080       .  S
C256        H268   1.074       .  S
C257        C258   1.361       .  A
C257        H269   1.080       .  S
C258        H270   1.077       .  S
C259        C568   1.490       .  S
C260        C531   1.475       .  S
C261        C667   1.533       .  S
C262        C699   1.537       .  S
N273        C278   1.349       .  A
N273        C277   1.350       .  A
N273        H305   1.043       .  S
N274        C281   1.352       .  A
N274        C282   1.352       .  A
N275        C280   1.356       .  A
N275        C279   1.359       .  A
N275        H306   1.039       .  S
N276        C283   1.355       .  A
N276        C284   1.354       .  A
C277        C285   1.386       .  A
C277        C293   1.401       .  A
C278        C294   1.405       .  A
C278        C286   1.388       .  A
C279        C287   1.389       .  A
C279        C296   1.426       .  A
C280        C295   1.415       .  A
C280        C288   1.382       .  A
C281        C293   1.412       .  A
C281        C289   1.381       .  A
C282        C296   1.412       .  A
C282        C290   1.380       .  A
C283        C291   1.384       .  A
C283        C294   1.419       .  A
C284        C292   1.384       .  A
C284        C295   1.417       .  A
C285        C286   1.362       .  A
C285        H297   1.082       .  S
C286        H298   1.082       .  S
C287        C288   1.365       .  A
C287        H299   1.077       .  S
C288        H300   1.078       .  S
C289        C290   1.365       .  A
C289        H301   1.078       .  S
C290        H302   1.076       .  S
C291        C292   1.367       .  A
C291        H303   1.079       .  S
C292        H304   1.080       .  S
C293        C534   1.492       .  S
C294        C565   1.495       .  S
C295        C680   1.493       .  S
C296        C653   1.499       .  S
N307        C312   1.345       .  A
N307        C311   1.347       .  A
N307        H339   1.044       .  S
N308        C315   1.351       .  A
N308        C316   1.350       .  A
N309        C314   1.353       .  A
N309        C313   1.353       .  A
N309        H340   1.043       .  S
N310        C317   1.355       .  A
N310        C318   1.358       .  A
C311        C319   1.385       .  A
C311        C327   1.396       .  A
C312        C328   1.401       .  A
C312        C320   1.390       .  A
C313        C321   1.382       .  A
C313        C330   1.409       .  A
C314        C329   1.407       .  A
C314        C322   1.382       .  A
C315        C327   1.410       .  A
C315        C323   1.383       .  A
C316        C330   1.406       .  A
C316        C324   1.381       .  A
C317        C325   1.383       .  A
C317        C328   1.423       .  A
C318        C326   1.376       .  A
C318        C329   1.417       .  A
C319        C320   1.363       .  A
C319        H331   1.082       .  S
C320        H332   1.082       .  S
C321        C322   1.378       .  A
C321        H333   1.082       .  S
C322        H334   1.083       .  S
C323        C324   1.368       .  A
C323        H335   1.079       .  S
C324        H336   1.079       .  S
C325        C326   1.372       .  A
C325        H337   1.078       .  S
C326        H338   1.077       .  S
C327        C532   1.489       .  S
C328        C395   1.491       .  S
C329        C622   1.497       .  S
C330        C670   1.483       .  S
N341        C346   1.345       .  A
N341        C345   1.345       .  A
N341        H373   1.044       .  S
N342        C349   1.351       .  A
N342        C350   1.351       .  A
N343        C348   1.367       .  A
N343        C347   1.373       .  A
N343        H374   1.043       .  S
N344        C351   1.357       .  A
N344        C352   1.351       .  A
C345        C353   1.386       .  A
C345        C361   1.392       .  A
C346        C362   1.394       .  A
C346        C354   1.387       .  A
C347        C355   1.381       .  A
C347        C364   1.443       .  A
C348        C363   1.440       .  A
C348        C356   1.381       .  A
C349        C361   1.407       .  A
C349        C357   1.380       .  A
C350        C364   1.405       .  A
C350        C358   1.380       .  A
C351        C359   1.384       .  A
C351        C362   1.417       .  A
C352        C360   1.387       .  A
C352        C363   1.411       .  A
C353        C354   1.359       .  A
C353        H365   1.082       .  S
C354        H366   1.082       .  S
C355        C356   1.385       .  A
C355        H367   1.079       .  S
C356        H368   1.078       .  S
C357        C358   1.358       .  A
C357        H369   1.079       .  S
C358        H370   1.073       .  S
C359        C360   1.365       .  A
C359        H371   1.080       .  S
C360        H372   1.081       .  S
C361        C533   1.482       .  S
C362        C398   1.491       .  S
C363        C641   1.507       .  S
C364        C651   1.523       .  S
N375        C380   1.345       .  A
N375        C379   1.345       .  A
N375        H407   1.045       .  S
N376        C383   1.347       .  A
N376       C1083   1.347   1_554  A
N377        C382   1.344       .  A
N377        C381   1.344       .  A
N377        H408   1.046       .  S
N378        C385   1.349       .  A
N378       C1085   1.349   1_554  A
C379        C387   1.387       .  A
C379        C395   1.398       .  A
C380        C396   1.399       .  A
C380        C388   1.387       .  A
C381        C389   1.388       .  A
C381        C398   1.398       .  A
C382        C397   1.396       .  A
C382        C390   1.387       .  A
C383        C395   1.415       .  A
C383        C391   1.387       .  A
C384       N1075   1.347       .  A
C384        C398   1.414       .  A
C384        C392   1.387       .  A
C385        C393   1.387       .  A
C385        C396   1.418       .  A
C386       N1077   1.349       .  A
C386        C394   1.388       .  A
C386        C397   1.421       .  A
C387        C388   1.361       .  A
C387        H399   1.082       .  S
C388        H400   1.082       .  S
C389        C390   1.362       .  A
C389        H401   1.082       .  S
C390        H402   1.082       .  S
C391       C1091   1.386   1_554  A
C391        H403   1.082       .  S
C392       C1090   1.386       .  A
C392        H404   1.082       .  S
C393       C1093   1.388   1_554  A
C393        H405   1.082       .  S
C394       C1092   1.388       .  A
C394        H406   1.082       .  S
C396        C463   1.499       .  S
C397        C429   1.500       .  S
N409        C414   1.349       .  A
N409        C413   1.346       .  A
N409        H441   1.044       .  S
N410        C417   1.359       .  A
N410        C418   1.360       .  A
N411        C416   1.363       .  A
N411        C415   1.362       .  A
N411        H442   1.044       .  S
N412        C419   1.353       .  A
N412        C420   1.353       .  A
C413        C421   1.390       .  A
C413        C429   1.401       .  A
C414        C430   1.396       .  A
C414        C422   1.384       .  A
C415        C423   1.380       .  A
C415        C432   1.424       .  A
C416        C431   1.428       .  A
C416        C424   1.380       .  A
C417        C429   1.430       .  A
C417        C425   1.386       .  A
C418        C432   1.421       .  A
C418        C426   1.382       .  A
C419        C427   1.381       .  A
C419        C430   1.413       .  A
C420        C428   1.376       .  A
C420        C431   1.402       .  A
C421        C422   1.359       .  A
C421        H433   1.082       .  S
C422        H434   1.082       .  S
C423        C424   1.378       .  A
C423        H435   1.078       .  S
C424        H436   1.078       .  S
C425        C426   1.370       .  A
C425        H437   1.078       .  S
C426        H438   1.079       .  S
C427        C428   1.362       .  A
C427        H439   1.078       .  S
C428        H440   1.073       .  S
C430        C497   1.493       .  S
C431        C681   1.510       .  S
C432        C638   1.521       .  S
N443        C448   1.349       .  A
N443        C447   1.349       .  A
N443        H475   1.043       .  S
N444        C451   1.357       .  A
N444        C452   1.355       .  A
N445        C450   1.370       .  A
N445        C449   1.366       .  A
N445        H476   1.045       .  S
N446        C453   1.353       .  A
N446        C454   1.354       .  A
C447        C455   1.387       .  A
C447        C463   1.400       .  A
C448        C464   1.400       .  A
C448        C456   1.386       .  A
C449        C457   1.373       .  A
C449        C466   1.424       .  A
C450        C465   1.433       .  A
C450        C458   1.378       .  A
C451        C463   1.423       .  A
C451        C459   1.386       .  A
C452        C466   1.407       .  A
C452        C460   1.381       .  A
C453        C461   1.385       .  A
C453        C464   1.418       .  A
C454        C462   1.384       .  A
C454        C465   1.410       .  A
C455        C456   1.361       .  A
C455        H467   1.082       .  S
C456        H468   1.082       .  S
C457        C458   1.374       .  A
C457        H469   1.076       .  S
C458        H470   1.076       .  S
C459        C460   1.366       .  A
C459        H471   1.079       .  S
C460        H472   1.079       .  S
C461        C462   1.364       .  A
C461        H473   1.079       .  S
C462        H474   1.079       .  S
C464        C500   1.497       .  S
C465        C697   1.520       .  S
C466        C624   1.513       .  S
N477        C482   1.343       .  A
N477        C481   1.342   1_655  A
N477        H509   1.045       .  S
N478        C486   1.344       .  A
N478       C1184   1.342   1_554  A
N479        C484   1.339       .  A
N479        C483   1.344   1_655  A
N479        H510   1.045       .  S
N480        C488   1.343       .  A
N480       C1186   1.346   1_554  A
C481        C489   1.388       .  A
C481        C497   1.401       .  A
C482        C498   1.402       .  A
C482        C490   1.387       .  A
C483        C491   1.386       .  A
C483        C500   1.399       .  A
C484        C499   1.398       .  A
C484        C492   1.388       .  A
C485       N1177   1.342       .  A
C485        C497   1.413       .  A
C485        C493   1.387       .  A
C486        C500   1.415       .  A
C486        C494   1.387       .  A
C487       N1179   1.346       .  A
C487        C495   1.387       .  A
C487        C498   1.415       .  A
C488        C496   1.387       .  A
C488        C499   1.414       .  A
C489        C490   1.376   1_455  A
C489        H501   1.082       .  S
C490        H502   1.082       .  S
C491        C492   1.375   1_455  A
C491        H503   1.082       .  S
C492        H504   1.082       .  S
C493       C1193   1.386       .  A
C493        H505   1.082       .  S
C494       C1192   1.386   1_554  A
C494        H506   1.082       .  S
C495       C1195   1.385       .  A
C495        H507   1.082       .  S
C496       C1194   1.385   1_554  A
C496        H508   1.082       .  S
N511        C516   1.343   1_565  A
N511        C515   1.338       .  A
N511        H543   1.045       .  S
N512        C519   1.338       .  A
N512       C1219   1.342   1_554  A
N513        C518   1.339   1_565  A
N513        C517   1.344       .  A
N513        H544   1.045       .  S
N514        C521   1.343       .  A
N514       C1221   1.339   1_554  A
C515        C523   1.388       .  A
C515        C531   1.397       .  A
C516        C532   1.398       .  A
C516        C524   1.386       .  A
C517        C525   1.386       .  A
C517        C534   1.401       .  A
C518        C533   1.401       .  A
C518        C526   1.389       .  A
C519        C531   1.407       .  A
C519        C527   1.387       .  A
C520       N1211   1.342       .  A
C520        C534   1.410       .  A
C520        C528   1.386       .  A
C521        C529   1.386       .  A
C521        C532   1.412       .  A
C522       N1213   1.339       .  A
C522        C530   1.388       .  A
C522        C533   1.409       .  A
C523        C524   1.375   1_565  A
C523        H535   1.082       .  S
C524        H536   1.082       .  S
C525        C526   1.377   1_565  A
C525        H537   1.082       .  S
C526        H538   1.082       .  S
C527       C1227   1.383   1_554  A
C527        H539   1.082       .  S
C528       C1226   1.383       .  A
C528        H540   1.082       .  S
C529       C1229   1.384   1_554  A
C529        H541   1.082       .  S
C530       C1228   1.384       .  A
C530        H542   1.082       .  S
N545        C550   1.346       .  A
N545        C549   1.347   1_655  A
N545        H577   1.044       .  S
N546        C554   1.347       .  A
N546       C1252   1.349   1_554  A
N547        C552   1.348       .  A
N547        C551   1.346   1_655  A
N547        H578   1.044       .  S
N548        C556   1.349       .  A
N548       C1254   1.349   1_554  A
C549        C557   1.387       .  A
C549        C565   1.402       .  A
C550        C566   1.400       .  A
C550        C558   1.386       .  A
C551        C559   1.388       .  A
C551        C568   1.402       .  A
C552        C567   1.400       .  A
C552        C560   1.386       .  A
C553       N1245   1.349       .  A
C553        C565   1.414       .  A
C553        C561   1.386       .  A
C554        C568   1.412       .  A
C554        C562   1.387       .  A
C555       N1247   1.349       .  A
C555        C563   1.386       .  A
C555        C566   1.417       .  A
C556        C564   1.388       .  A
C556        C567   1.419       .  A
C557        C558   1.366   1_455  A
C557        H569   1.082       .  S
C558        H570   1.082       .  S
C559        C560   1.361   1_455  A
C559        H571   1.082       .  S
C560        H572   1.082       .  S
C561       C1261   1.382       .  A
C561        H573   1.082       .  S
C562       C1260   1.382   1_554  A
C562        H574   1.082       .  S
C563       C1263   1.386       .  A
C563        H575   1.082       .  S
C564       C1262   1.386   1_554  A
C564        H576   1.082       .  S
N579        C584   1.340       .  A
N579        C583   1.345       .  A
N579        H611   1.045       .  S
N580        C587   1.346       .  A
N580       C1287   1.341   1_554  A
N581        C586   1.346       .  A
N581        C585   1.340       .  A
N581        H612   1.045       .  S
N582        C589   1.339       .  A
N582       C1289   1.343   1_554  A
C583        C591   1.386       .  A
C583        C599   1.402       .  A
C584        C600   1.402       .  A
C584        C592   1.389       .  A
C585        C593   1.389       .  A
C585        C602   1.402       .  A
C586        C601   1.402       .  A
C586        C594   1.385       .  A
C587        C599   1.415       .  A
C587        C595   1.386       .  A
C588       N1279   1.341       .  A
C588        C602   1.411       .  A
C588        C596   1.387       .  A
C589        C597   1.387       .  A
C589        C600   1.408       .  A
C590       N1281   1.344       .  A
C590        C598   1.387       .  A
C590        C601   1.412       .  A
C591        C592   1.377       .  A
C591        H603   1.082       .  S
C592        H604   1.082       .  S
C593        C594   1.377       .  A
C593        H605   1.082       .  S
C594        H606   1.082       .  S
C595       C1295   1.384   1_554  A
C595        H607   1.082       .  S
C596       C1294   1.384       .  A
C596        H608   1.082       .  S
C597       C1297   1.384   1_554  A
C597        H609   1.082       .  S
C598       C1296   1.384       .  A
C598        H610   1.082       .  S
O613        C621   1.266       .  A
O613       Co633   1.952       .  S
O614        C622   1.282       .  A
O614       Co634   1.892       .  S
O615        C623   1.259       .  A
O615       Co635   2.017       .  S
O616        C624   1.250       .  A
O616       Co636   2.000       .  S
O617        C623   1.270       .  A
O617       Co634   1.988       .  S
O618        C624   1.263       .  A
O618       Co633   2.028       .  S
O619        C622   1.310       .  A
O619       Co636   2.115       .  S
O620        C621   1.277       .  A
O620       Co635   2.003       .  S
O625        C638   1.276       .  A
O625       Co633   1.906       .  S
O626        C639   1.279       .  A
O626       Co634   2.009       .  S
O627        C640   1.267       .  A
O627       Co635   2.041       .  S
O628        C641   1.253       .  A
O628       Co636   1.995       .  S
O629        C641   1.262       .  A
O629       Co634   2.015       .  S
O630        C640   1.276       .  A
O630       Co633   1.994       .  S
O631        C638   1.314       .  A
O631       Co636   2.128       .  S
O632        C639   1.289       .  A
O632       Co635   2.014       .  S
Co633       O637   1.955       .  S
Co634       O637   1.945       .  S
Co635       O637   2.083       .  S
Co636       O637   2.156       .  S
O642        C650   1.292       .  A
O642       Co662   2.070       .  S
O643        C651   1.261       .  A
O643       Co663   1.991       .  S
O644        C652   1.324       .  A
O644       Co664   2.143   1_545  S
O645        C653   1.277       .  A
O645       Co665   2.003       .  S
O646        C652   1.280       .  A
O646       Co663   1.877       .  S
O647        C653   1.265       .  A
O647       Co662   1.976       .  S
O648        C651   1.265       .  A
O648       Co665   2.047   1_545  S
O649        C650   1.280       .  A
O649       Co664   1.995       .  S
O654        C667   1.270       .  A
O654       Co662   1.991       .  S
O655        C668   1.261       .  A
O655       Co663   1.985       .  S
O656        C669   1.304       .  A
O656       Co664   2.126       .  S
O657        C670   1.281       .  A
O657       Co665   1.991   1_545  S
O658        C670   1.282       .  A
O658       Co663   2.016       .  S
O659        C669   1.272       .  A
O659       Co662   1.882       .  S
O660        C667   1.272       .  A
O660       Co665   2.063       .  S
O661        C668   1.270       .  A
O661       Co664   2.048   1_545  S
Co662       O666   1.990   1_565  S
Co663       O666   1.906       .  S
Co664       O666   2.144   1_565  S
Co665       O666   2.098   1_565  S
O671        C679   1.268       .  A
O671       Co691   1.984       .  S
O672        C680   1.276       .  A
O672       Co692   2.012       .  S
O673        C681   1.259       .  A
O673       Co693   2.026   1_455  S
O674        C682   1.268       .  A
O674       Co694   2.000       .  S
O675        C681   1.240       .  A
O675       Co692   1.966       .  S
O676        C682   1.293       .  A
O676       Co691   2.061       .  S
O677        C680   1.271       .  A
O677       Co694   1.977   1_455  S
O678        C679   1.272       .  A
O678       Co693   2.051       .  S
O683        C696   1.252       .  A
O683       Co691   1.984       .  S
O684        C697   1.273       .  A
O684       Co692   1.894       .  S
O685        C698   1.308       .  A
O685       Co693   2.126       .  S
O686        C699   1.261       .  A
O686       Co694   2.037   1_455  S
O687        C699   1.266       .  A
O687       Co692   1.973       .  S
O688        C698   1.258       .  A
O688       Co691   1.899       .  S
O689        C696   1.270       .  A
O689       Co694   2.041       .  S
O690        C697   1.315       .  A
O690       Co693   2.138   1_455  S
Co691       O695   1.970       .  S
Co692       O695   1.984   1_455  S
Co693       O695   2.265       .  S
Co694       O695   2.146       .  S
N700        C705   1.348       .  A
N700        C704   1.352       .  A
N700        H732   1.043       .  S
N701        C708   1.353       .  A
N701        C709   1.350       .  A
N702        C707   1.359       .  A
N702        C706   1.356       .  A
N702        H733   1.038       .  S
N703        C710   1.359       .  A
N703        C711   1.363       .  A
C704        C712   1.385       .  A
C704        C720   1.402       .  A
C705        C721   1.405       .  A
C705        C713   1.390       .  A
C706        C714   1.389       .  A
C706        C723   1.423       .  A
C707        C722   1.417       .  A
C707        C715   1.383       .  A
C708        C720   1.413       .  A
C708        C716   1.382       .  A
C709        C723   1.414       .  A
C709        C717   1.384       .  A
C710        C718   1.386       .  A
C710        C721   1.435       .  A
C711        C719   1.379       .  A
C711        C722   1.426       .  A
C712        C713   1.360       .  A
C712        H724   1.082       .  S
C713        H725   1.082       .  S
C714        C715   1.354       .  A
C714        H726   1.076       .  S
C715        H727   1.077       .  S
C716        C717   1.370       .  A
C716        H728   1.079       .  S
C717        H729   1.079       .  S
C718        C719   1.372       .  A
C718        H730   1.079       .  S
C719        H731   1.078       .  S
C720       C1298   1.497       .  S
C721        C856   1.506       .  S
C722       C1368   1.511       .  S
C723       C1320   1.486       .  S
N734        C739   1.342       .  A
N734        C738   1.345       .  A
N734        H766   1.043       .  S
N735        C742   1.353       .  A
N735        C743   1.351       .  A
N736        C741   1.375       .  A
N736        C740   1.374       .  A
N736        H767   1.038       .  S
N737        C744   1.362       .  A
N737        C745   1.361       .  A
C738        C746   1.385       .  A
C738        C754   1.390       .  A
C739        C755   1.393       .  A
C739        C747   1.389       .  A
C740        C748   1.388       .  A
C740        C757   1.462       .  A
C741        C756   1.459       .  A
C741        C749   1.387       .  A
C742        C754   1.406       .  A
C742        C750   1.378       .  A
C743        C757   1.414       .  A
C743        C751   1.389       .  A
C744        C752   1.381       .  A
C744        C755   1.430       .  A
C745        C753   1.388       .  A
C745        C756   1.435       .  A
C746        C747   1.359       .  A
C746        H758   1.082       .  S
C747        H759   1.082       .  S
C748        C749   1.398       .  A
C748        H760   1.082       .  S
C749        H761   1.082       .  S
C750        C751   1.360       .  A
C750        H762   1.080       .  S
C751        H763   1.079       .  S
C752        C753   1.373       .  A
C752        H764   1.078       .  S
C753        H765   1.080       .  S
C754       C1301   1.484       .  S
C755        C859   1.500       .  S
C756       C1349   1.545       .  S
C757       C1339   1.531       .  S
N768        C773   1.347       .  A
N768        C772   1.350       .  A
N768        H800   1.043       .  S
N769        C776   1.354       .  A
N769        C777   1.352       .  A
N770        C775   1.364       .  A
N770        C774   1.363       .  A
N770        H801   1.042       .  S
N771        C778   1.359       .  A
N771        C779   1.360       .  A
C772        C780   1.385       .  A
C772        C788   1.399       .  A
C773        C789   1.402       .  A
C773        C781   1.389       .  A
C774        C782   1.380       .  A
C774        C791   1.427       .  A
C775        C790   1.434       .  A
C775        C783   1.389       .  A
C776        C788   1.415       .  A
C776        C784   1.381       .  A
C777        C791   1.408       .  A
C777        C785   1.377       .  A
C778        C786   1.383       .  A
C778        C789   1.427       .  A
C779        C787   1.384       .  A
C779        C790   1.425       .  A
C780        C781   1.361       .  A
C780        H792   1.082       .  S
C781        H793   1.082       .  S
C782        C783   1.372       .  A
C782        H794   1.076       .  S
C783        H795   1.078       .  S
C784        C785   1.366       .  A
C784        H796   1.078       .  S
C785        H797   1.075       .  S
C786        C787   1.367       .  A
C786        H798   1.078       .  S
C787        H799   1.077       .  S
C788       C1197   1.496       .  S
C789        C858   1.500       .  S
C790       C1351   1.519       .  S
C791       C1378   1.504       .  S
N802        C807   1.345       .  A
N802        C806   1.343       .  A
N802        H834   1.043       .  S
N803        C810   1.357       .  A
N803        C811   1.356       .  A
N804        C809   1.365       .  A
N804        C808   1.369       .  A
N804        H835   1.034       .  S
N805        C812   1.353       .  A
N805        C813   1.352       .  A
C806        C814   1.389       .  A
C806        C822   1.395       .  A
C807        C823   1.392       .  A
C807        C815   1.386       .  A
C808        C816   1.387       .  A
C808        C825   1.445       .  A
C809        C824   1.442       .  A
C809        C817   1.385       .  A
C810        C822   1.421       .  A
C810        C818   1.380       .  A
C811        C825   1.424       .  A
C811        C819   1.385       .  A
C812        C820   1.380       .  A
C812        C823   1.411       .  A
C813        C821   1.386       .  A
C813        C824   1.414       .  A
C814        C815   1.360       .  A
C814        H826   1.082       .  S
C815        H827   1.082       .  S
C816        C817   1.391       .  A
C816        H828   1.082       .  S
C817        H829   1.082       .  S
C818        C819   1.368       .  A
C818        H830   1.078       .  S
C819        H831   1.079       .  S
C820        C821   1.368       .  A
C820        H832   1.080       .  S
C821        H833   1.080       .  S
C822        C857   1.490       .  S
C823       C1198   1.484       .  S
C824       C1397   1.507       .  S
C825       C1367   1.522       .  S
N836        C841   1.342   1_565  A
N836        C840   1.345       .  A
N836        H868   1.046       .  S
N837        C844   1.354       .  A
N838        C843   1.347   1_565  A
N838        C842   1.343       .  A
N838        H869   1.045       .  S
N839        C846   1.347       .  A
C840        C848   1.387       .  A
C840        C856   1.395       .  A
C841        C857   1.397       .  A
C841        C849   1.388       .  A
C842        C850   1.389       .  A
C842        C859   1.399       .  A
C843        C858   1.397       .  A
C843        C851   1.386       .  A
C844        C856   1.425       .  A
C844        C852   1.386       .  A
C845        C859   1.426       .  A
C845        C853   1.388       .  A
C846        C854   1.387       .  A
C846        C857   1.416       .  A
C847        C855   1.386       .  A
C847        C858   1.417       .  A
C848        C849   1.362   1_565  A
C848        H860   1.082       .  S
C849        H861   1.082       .  S
C850        C851   1.362   1_565  A
C850        H862   1.082       .  S
C851        H863   1.082       .  S
C852        H864   1.082       .  S
C853        H865   1.082       .  S
C854        H866   1.082       .  S
C855        H867   1.082       .  S
N870        C875   1.351       .  A
N870        C874   1.350       .  A
N870        H902   1.043       .  S
N871        C878   1.354       .  A
N871        C879   1.354       .  A
N872        C877   1.359       .  A
N872        C876   1.363       .  A
N872        H903   1.040       .  S
N873        C880   1.356       .  A
N873        C881   1.356       .  A
C874        C882   1.386       .  A
C874        C890   1.404       .  A
C875        C891   1.406       .  A
C875        C883   1.388       .  A
C876        C884   1.391       .  A
C876        C893   1.436       .  A
C877        C892   1.418       .  A
C877        C885   1.379       .  A
C878        C890   1.416       .  A
C878        C886   1.383       .  A
C879        C893   1.420       .  A
C879        C887   1.387       .  A
C880        C888   1.387       .  A
C880        C891   1.426       .  A
C881        C889   1.379       .  A
C881        C892   1.413       .  A
C882        C883   1.363       .  A
C882        H894   1.082       .  S
C883        H895   1.082       .  S
C884        C885   1.374       .  A
C884        H896   1.077       .  S
C885        H897   1.081       .  S
C886        C887   1.368       .  A
C886        H898   1.080       .  S
C887        H899   1.080       .  S
C888        C889   1.368       .  A
C888        H900   1.079       .  S
C889        H901   1.081       .  S
C890       C1300   1.497       .  S
C891       C1265   1.500       .  S
C892       C1381   1.497       .  S
C893       C1338   1.511       .  S
N904        C909   1.343       .  A
N904        C908   1.344       .  A
N904        H936   1.046       .  S
N905        C912   1.351       .  A
N905        C913   1.352       .  A
N906        C911   1.364       .  A
N906        C910   1.367       .  A
N906        H937   1.036       .  S
N907        C914   1.359       .  A
N907        C915   1.355       .  A
C908        C916   1.386       .  A
C908        C924   1.394       .  A
C909        C925   1.396       .  A
C909        C917   1.387       .  A
C910        C918   1.388       .  A
C910        C927   1.444       .  A
C911        C926   1.437       .  A
C911        C919   1.384       .  A
C912        C924   1.409       .  A
C912        C920   1.379       .  A
C913        C927   1.409       .  A
C913        C921   1.380       .  A
C914        C922   1.382       .  A
C914        C925   1.423       .  A
C915        C923   1.386       .  A
C915        C926   1.421       .  A
C916        C917   1.364       .  A
C916        H928   1.082       .  S
C917        H929   1.082       .  S
C918        C919   1.389       .  A
C918        H930   1.080       .  S
C919        H931   1.083       .  S
C920        C921   1.358       .  A
C920        H932   1.079       .  S
C921        H933   1.074       .  S
C922        C923   1.371       .  A
C922        H934   1.077       .  S
C923        H935   1.082       .  S
C924       C1299   1.482       .  S
C925       C1266   1.500       .  S
C926       C1395   1.508       .  S
C927       C1322   1.516       .  S
N938        C943   1.341       .  A
N938        C942   1.341       .  A
N938        H970   1.044       .  S
N939        C946   1.359       .  A
N939        C947   1.355       .  A
N940        C945   1.377       .  A
N940        C944   1.374       .  A
N940        H971   1.038       .  S
N941        C948   1.351       .  A
N941        C949   1.350       .  A
C942        C950   1.388       .  A
C942        C958   1.391       .  A
C943        C959   1.387       .  A
C943        C951   1.386       .  A
C944        C952   1.395       .  A
C944        C961   1.468       .  A
C945        C960   1.455       .  A
C945        C953   1.381       .  A
C946        C958   1.415       .  A
C946        C954   1.374       .  A
C947        C961   1.433       .  A
C947        C955   1.395       .  A
C948        C956   1.378       .  A
C948        C959   1.404       .  A
C949        C957   1.387       .  A
C949        C960   1.413       .  A
C950        C951   1.362       .  A
C950        H962   1.082       .  S
C951        H963   1.082       .  S
C952        C953   1.393       .  A
C952        H964   1.078       .  S
C953        H965   1.082       .  S
C954        C955   1.364       .  A
C954        H966   1.080       .  S
C955        H967   1.074       .  S
C956        C957   1.361       .  A
C956        H968   1.080       .  S
C957        H969   1.077       .  S
C958       C1267   1.490       .  S
C959       C1230   1.475       .  S
C960       C1366   1.533       .  S
C961       C1398   1.537       .  S
N972        C977   1.349       .  A
N972        C976   1.350       .  A
N972       H1004   1.043       .  S
N973        C980   1.352       .  A
N973        C981   1.352       .  A
N974        C979   1.356       .  A
N974        C978   1.359       .  A
N974       H1005   1.039       .  S
N975        C982   1.355       .  A
N975        C983   1.354       .  A
C976        C984   1.386       .  A
C976        C992   1.401       .  A
C977        C993   1.405       .  A
C977        C985   1.388       .  A
C978        C986   1.389       .  A
C978        C995   1.426       .  A
C979        C994   1.415       .  A
C979        C987   1.382       .  A
C980        C992   1.412       .  A
C980        C988   1.381       .  A
C981        C995   1.412       .  A
C981        C989   1.380       .  A
C982        C990   1.384       .  A
C982        C993   1.419       .  A
C983        C991   1.384       .  A
C983        C994   1.417       .  A
C984        C985   1.362       .  A
C984        H996   1.082       .  S
C985        H997   1.082       .  S
C986        C987   1.365       .  A
C986        H998   1.077       .  S
C987        H999   1.078       .  S
C988        C989   1.365       .  A
C988       H1000   1.078       .  S
C989       H1001   1.076       .  S
C990        C991   1.367       .  A
C990       H1002   1.079       .  S
C991       H1003   1.080       .  S
C992       C1233   1.492       .  S
C993       C1264   1.495       .  S
C994       C1379   1.493       .  S
C995       C1352   1.499       .  S
N1006      C1011   1.345       .  A
N1006      C1010   1.347       .  A
N1006      H1038   1.044       .  S
N1007      C1014   1.351       .  A
N1007      C1015   1.350       .  A
N1008      C1013   1.353       .  A
N1008      C1012   1.353       .  A
N1008      H1039   1.043       .  S
N1009      C1016   1.355       .  A
N1009      C1017   1.358       .  A
C1010      C1018   1.385       .  A
C1010      C1026   1.396       .  A
C1011      C1027   1.401       .  A
C1011      C1019   1.390       .  A
C1012      C1020   1.382       .  A
C1012      C1029   1.409       .  A
C1013      C1028   1.407       .  A
C1013      C1021   1.382       .  A
C1014      C1026   1.411       .  A
C1014      C1022   1.383       .  A
C1015      C1029   1.406       .  A
C1015      C1023   1.381       .  A
C1016      C1024   1.383       .  A
C1016      C1027   1.423       .  A
C1017      C1025   1.376       .  A
C1017      C1028   1.417       .  A
C1018      C1019   1.363       .  A
C1018      H1030   1.082       .  S
C1019      H1031   1.082       .  S
C1020      C1021   1.378       .  A
C1020      H1032   1.082       .  S
C1021      H1033   1.083       .  S
C1022      C1023   1.368       .  A
C1022      H1034   1.079       .  S
C1023      H1035   1.079       .  S
C1024      C1025   1.372       .  A
C1024      H1036   1.078       .  S
C1025      H1037   1.077       .  S
C1026      C1231   1.489       .  S
C1027      C1094   1.491       .  S
C1028      C1321   1.497       .  S
C1029      C1369   1.482       .  S
N1040      C1045   1.345       .  A
N1040      C1044   1.345       .  A
N1040      H1072   1.044       .  S
N1041      C1048   1.351       .  A
N1041      C1049   1.351       .  A
N1042      C1047   1.367       .  A
N1042      C1046   1.373       .  A
N1042      H1073   1.043       .  S
N1043      C1050   1.357       .  A
N1043      C1051   1.351       .  A
C1044      C1052   1.386       .  A
C1044      C1060   1.392       .  A
C1045      C1061   1.394       .  A
C1045      C1053   1.387       .  A
C1046      C1054   1.381       .  A
C1046      C1063   1.443       .  A
C1047      C1062   1.440       .  A
C1047      C1055   1.381       .  A
C1048      C1060   1.407       .  A
C1048      C1056   1.380       .  A
C1049      C1063   1.405       .  A
C1049      C1057   1.380       .  A
C1050      C1058   1.384       .  A
C1050      C1061   1.417       .  A
C1051      C1059   1.387       .  A
C1051      C1062   1.411       .  A
C1052      C1053   1.359       .  A
C1052      H1064   1.082       .  S
C1053      H1065   1.082       .  S
C1054      C1055   1.385       .  A
C1054      H1066   1.079       .  S
C1055      H1067   1.078       .  S
C1056      C1057   1.358       .  A
C1056      H1068   1.079       .  S
C1057      H1069   1.073       .  S
C1058      C1059   1.365       .  A
C1058      H1070   1.080       .  S
C1059      H1071   1.081       .  S
C1060      C1232   1.482       .  S
C1061      C1097   1.491       .  S
C1062      C1340   1.507       .  S
C1063      C1350   1.523       .  S
N1074      C1079   1.345       .  A
N1074      C1078   1.345       .  A
N1074      H1106   1.045       .  S
N1075      C1082   1.347       .  A
N1076      C1081   1.344       .  A
N1076      C1080   1.344       .  A
N1076      H1107   1.046       .  S
N1077      C1084   1.349       .  A
C1078      C1086   1.387       .  A
C1078      C1094   1.398       .  A
C1079      C1095   1.399       .  A
C1079      C1087   1.387       .  A
C1080      C1088   1.388       .  A
C1080      C1097   1.398       .  A
C1081      C1096   1.396       .  A
C1081      C1089   1.387       .  A
C1082      C1094   1.415       .  A
C1082      C1090   1.387       .  A
C1083      C1097   1.414       .  A
C1083      C1091   1.387       .  A
C1084      C1092   1.387       .  A
C1084      C1095   1.418       .  A
C1085      C1093   1.388       .  A
C1085      C1096   1.421       .  A
C1086      C1087   1.361       .  A
C1086      H1098   1.082       .  S
C1087      H1099   1.082       .  S
C1088      C1089   1.362       .  A
C1088      H1100   1.082       .  S
C1089      H1101   1.082       .  S
C1090      H1102   1.082       .  S
C1091      H1103   1.082       .  S
C1092      H1104   1.082       .  S
C1093      H1105   1.082       .  S
C1095      C1162   1.499       .  S
C1096      C1128   1.500       .  S
N1108      C1113   1.349       .  A
N1108      C1112   1.346       .  A
N1108      H1140   1.043       .  S
N1109      C1116   1.359       .  A
N1109      C1117   1.360       .  A
N1110      C1115   1.363       .  A
N1110      C1114   1.362       .  A
N1110      H1141   1.044       .  S
N1111      C1118   1.353       .  A
N1111      C1119   1.353       .  A
C1112      C1120   1.390       .  A
C1112      C1128   1.401       .  A
C1113      C1129   1.396       .  A
C1113      C1121   1.384       .  A
C1114      C1122   1.380       .  A
C1114      C1131   1.424       .  A
C1115      C1130   1.428       .  A
C1115      C1123   1.380       .  A
C1116      C1128   1.430       .  A
C1116      C1124   1.386       .  A
C1117      C1131   1.421       .  A
C1117      C1125   1.382       .  A
C1118      C1126   1.381       .  A
C1118      C1129   1.413       .  A
C1119      C1127   1.376       .  A
C1119      C1130   1.402       .  A
C1120      C1121   1.359       .  A
C1120      H1132   1.082       .  S
C1121      H1133   1.082       .  S
C1122      C1123   1.378       .  A
C1122      H1134   1.078       .  S
C1123      H1135   1.078       .  S
C1124      C1125   1.370       .  A
C1124      H1136   1.078       .  S
C1125      H1137   1.079       .  S
C1126      C1127   1.362       .  A
C1126      H1138   1.078       .  S
C1127      H1139   1.073       .  S
C1129      C1196   1.493       .  S
C1130      C1380   1.510       .  S
C1131      C1337   1.521       .  S
N1142      C1147   1.349       .  A
N1142      C1146   1.348       .  A
N1142      H1174   1.043       .  S
N1143      C1150   1.357       .  A
N1143      C1151   1.355       .  A
N1144      C1149   1.370       .  A
N1144      C1148   1.366       .  A
N1144      H1175   1.045       .  S
N1145      C1152   1.353       .  A
N1145      C1153   1.354       .  A
C1146      C1154   1.387       .  A
C1146      C1162   1.400       .  A
C1147      C1163   1.400       .  A
C1147      C1155   1.386       .  A
C1148      C1156   1.373       .  A
C1148      C1165   1.424       .  A
C1149      C1164   1.433       .  A
C1149      C1157   1.378       .  A
C1150      C1162   1.423       .  A
C1150      C1158   1.386       .  A
C1151      C1165   1.407       .  A
C1151      C1159   1.381       .  A
C1152      C1160   1.385       .  A
C1152      C1163   1.418       .  A
C1153      C1161   1.384       .  A
C1153      C1164   1.410       .  A
C1154      C1155   1.361       .  A
C1154      H1166   1.082       .  S
C1155      H1167   1.082       .  S
C1156      C1157   1.374       .  A
C1156      H1168   1.076       .  S
C1157      H1169   1.076       .  S
C1158      C1159   1.366       .  A
C1158      H1170   1.079       .  S
C1159      H1171   1.079       .  S
C1160      C1161   1.364       .  A
C1160      H1172   1.079       .  S
C1161      H1173   1.079       .  S
C1163      C1199   1.497       .  S
C1164      C1396   1.519       .  S
C1165      C1323   1.513       .  S
N1176      C1181   1.343       .  A
N1176      C1180   1.342   1_655  A
N1176      H1208   1.045       .  S
N1177      C1185   1.344       .  A
N1178      C1183   1.339       .  A
N1178      C1182   1.344   1_655  A
N1178      H1209   1.046       .  S
N1179      C1187   1.343       .  A
C1180      C1188   1.388       .  A
C1180      C1196   1.401       .  A
C1181      C1197   1.402       .  A
C1181      C1189   1.387       .  A
C1182      C1190   1.386       .  A
C1182      C1199   1.399       .  A
C1183      C1198   1.398       .  A
C1183      C1191   1.388       .  A
C1184      C1196   1.413       .  A
C1184      C1192   1.387       .  A
C1185      C1199   1.415       .  A
C1185      C1193   1.387       .  A
C1186      C1194   1.387       .  A
C1186      C1197   1.415       .  A
C1187      C1195   1.387       .  A
C1187      C1198   1.414       .  A
C1188      C1189   1.376   1_455  A
C1188      H1200   1.082       .  S
C1189      H1201   1.082       .  S
C1190      C1191   1.375   1_455  A
C1190      H1202   1.082       .  S
C1191      H1203   1.082       .  S
C1192      H1204   1.082       .  S
C1193      H1205   1.082       .  S
C1194      H1206   1.082       .  S
C1195      H1207   1.082       .  S
N1210      C1215   1.343   1_565  A
N1210      C1214   1.338       .  A
N1210      H1242   1.045       .  S
N1211      C1218   1.338       .  A
N1212      C1217   1.339   1_565  A
N1212      C1216   1.344       .  A
N1212      H1243   1.045       .  S
N1213      C1220   1.343       .  A
C1214      C1222   1.388       .  A
C1214      C1230   1.397       .  A
C1215      C1231   1.398       .  A
C1215      C1223   1.386       .  A
C1216      C1224   1.386       .  A
C1216      C1233   1.401       .  A
C1217      C1232   1.401       .  A
C1217      C1225   1.389       .  A
C1218      C1230   1.407       .  A
C1218      C1226   1.387       .  A
C1219      C1233   1.410       .  A
C1219      C1227   1.386       .  A
C1220      C1228   1.386       .  A
C1220      C1231   1.412       .  A
C1221      C1229   1.388       .  A
C1221      C1232   1.409       .  A
C1222      C1223   1.375   1_565  A
C1222      H1234   1.082       .  S
C1223      H1235   1.082       .  S
C1224      C1225   1.377   1_565  A
C1224      H1236   1.082       .  S
C1225      H1237   1.082       .  S
C1226      H1238   1.082       .  S
C1227      H1239   1.082       .  S
C1228      H1240   1.082       .  S
C1229      H1241   1.082       .  S
N1244      C1249   1.346       .  A
N1244      C1248   1.347   1_655  A
N1244      H1276   1.044       .  S
N1245      C1253   1.347       .  A
N1246      C1251   1.348       .  A
N1246      C1250   1.346   1_655  A
N1246      H1277   1.044       .  S
N1247      C1255   1.349       .  A
C1248      C1256   1.387       .  A
C1248      C1264   1.403       .  A
C1249      C1265   1.400       .  A
C1249      C1257   1.386       .  A
C1250      C1258   1.388       .  A
C1250      C1267   1.402       .  A
C1251      C1266   1.400       .  A
C1251      C1259   1.386       .  A
C1252      C1264   1.414       .  A
C1252      C1260   1.386       .  A
C1253      C1267   1.412       .  A
C1253      C1261   1.387       .  A
C1254      C1262   1.386       .  A
C1254      C1265   1.417       .  A
C1255      C1263   1.388       .  A
C1255      C1266   1.419       .  A
C1256      C1257   1.366   1_455  A
C1256      H1268   1.082       .  S
C1257      H1269   1.082       .  S
C1258      C1259   1.361   1_455  A
C1258      H1270   1.082       .  S
C1259      H1271   1.082       .  S
C1260      H1272   1.082       .  S
C1261      H1273   1.082       .  S
C1262      H1274   1.082       .  S
C1263      H1275   1.082       .  S
N1278      C1283   1.340       .  A
N1278      C1282   1.345       .  A
N1278      H1310   1.045       .  S
N1279      C1286   1.346       .  A
N1280      C1285   1.346       .  A
N1280      C1284   1.340       .  A
N1280      H1311   1.045       .  S
N1281      C1288   1.339       .  A
C1282      C1290   1.386       .  A
C1282      C1298   1.402       .  A
C1283      C1299   1.402       .  A
C1283      C1291   1.389       .  A
C1284      C1292   1.389       .  A
C1284      C1301   1.402       .  A
C1285      C1300   1.402       .  A
C1285      C1293   1.385       .  A
C1286      C1298   1.415       .  A
C1286      C1294   1.386       .  A
C1287      C1301   1.411       .  A
C1287      C1295   1.387       .  A
C1288      C1296   1.387       .  A
C1288      C1299   1.408       .  A
C1289      C1297   1.387       .  A
C1289      C1300   1.412       .  A
C1290      C1291   1.377       .  A
C1290      H1302   1.082       .  S
C1291      H1303   1.082       .  S
C1292      C1293   1.377       .  A
C1292      H1304   1.082       .  S
C1293      H1305   1.082       .  S
C1294      H1306   1.082       .  S
C1295      H1307   1.082       .  S
C1296      H1308   1.082       .  S
C1297      H1309   1.082       .  S
O1312      C1320   1.266       .  A
O1312     Co1332   1.952       .  S
O1313      C1321   1.282       .  A
O1313     Co1333   1.892       .  S
O1314      C1322   1.259       .  A
O1314     Co1334   2.017       .  S
O1315      C1323   1.250       .  A
O1315     Co1335   2.000       .  S
O1316      C1322   1.270       .  A
O1316     Co1333   1.988       .  S
O1317      C1323   1.263       .  A
O1317     Co1332   2.028       .  S
O1318      C1321   1.310       .  A
O1318     Co1335   2.115       .  S
O1319      C1320   1.277       .  A
O1319     Co1334   2.003       .  S
O1324      C1337   1.276       .  A
O1324     Co1332   1.906       .  S
O1325      C1338   1.279       .  A
O1325     Co1333   2.009       .  S
O1326      C1339   1.267       .  A
O1326     Co1334   2.041       .  S
O1327      C1340   1.253       .  A
O1327     Co1335   1.995       .  S
O1328      C1340   1.262       .  A
O1328     Co1333   2.015       .  S
O1329      C1339   1.276       .  A
O1329     Co1332   1.994       .  S
O1330      C1337   1.315       .  A
O1330     Co1335   2.129       .  S
O1331      C1338   1.289       .  A
O1331     Co1334   2.014       .  S
Co1332     O1336   1.955       .  S
Co1333     O1336   1.945       .  S
Co1334     O1336   2.083       .  S
Co1335     O1336   2.156       .  S
O1341      C1349   1.292       .  A
O1341     Co1361   2.070       .  S
O1342      C1350   1.261       .  A
O1342     Co1362   1.991       .  S
O1343      C1351   1.324       .  A
O1343     Co1363   2.143   1_545  S
O1344      C1352   1.277       .  A
O1344     Co1364   2.004       .  S
O1345      C1351   1.280       .  A
O1345     Co1362   1.877       .  S
O1346      C1352   1.265       .  A
O1346     Co1361   1.976       .  S
O1347      C1350   1.264       .  A
O1347     Co1364   2.047   1_545  S
O1348      C1349   1.280       .  A
O1348     Co1363   1.995       .  S
O1353      C1366   1.270       .  A
O1353     Co1361   1.991       .  S
O1354      C1367   1.261       .  A
O1354     Co1362   1.985       .  S
O1355      C1368   1.304       .  A
O1355     Co1363   2.126       .  S
O1356      C1369   1.281       .  A
O1356     Co1364   1.991   1_545  S
O1357      C1369   1.282       .  A
O1357     Co1362   2.016       .  S
O1358      C1368   1.272       .  A
O1358     Co1361   1.882       .  S
O1359      C1366   1.272       .  A
O1359     Co1364   2.063       .  S
O1360      C1367   1.270       .  A
O1360     Co1363   2.048   1_545  S
Co1361     O1365   1.990   1_565  S
Co1362     O1365   1.906       .  S
Co1363     O1365   2.144   1_565  S
Co1364     O1365   2.098   1_565  S
O1370      C1378   1.268       .  A
O1370     Co1390   1.984       .  S
O1371      C1379   1.276       .  A
O1371     Co1391   2.013       .  S
O1372      C1380   1.259       .  A
O1372     Co1392   2.026   1_455  S
O1373      C1381   1.268       .  A
O1373     Co1393   2.000       .  S
O1374      C1380   1.240       .  A
O1374     Co1391   1.966       .  S
O1375      C1381   1.293       .  A
O1375     Co1390   2.061       .  S
O1376      C1379   1.271       .  A
O1376     Co1393   1.977   1_455  S
O1377      C1378   1.272       .  A
O1377     Co1392   2.050       .  S
O1382      C1395   1.252       .  A
O1382     Co1390   1.983       .  S
O1383      C1396   1.273       .  A
O1383     Co1391   1.894       .  S
O1384      C1397   1.308       .  A
O1384     Co1392   2.126       .  S
O1385      C1398   1.261       .  A
O1385     Co1393   2.038   1_455  S
O1386      C1398   1.266       .  A
O1386     Co1391   1.973       .  S
O1387      C1397   1.258       .  A
O1387     Co1390   1.899       .  S
O1388      C1395   1.270       .  A
O1388     Co1393   2.041       .  S
O1389      C1396   1.315       .  A
O1389     Co1392   2.138   1_455  S
Co1390     O1394   1.970       .  S
Co1391     O1394   1.984   1_455  S
Co1392     O1394   2.265       .  S
Co1393     O1394   2.146       .  S
