geometry optimzed in LAMMPS
_audit_creation_date              2020-11-30 
_audit_creation_method            'lammps2cif' 
_symmetry_space_group_name_H-M    'P1' 
_symmetry_Int_Tables_number       1 
_symmetry_cell_setting            triclinic 
loop_ 
_symmetry_equiv_pos_as_xyz 
  x,y,z 
_cell_length_a                    26.19391597 
_cell_length_b                    26.22218676847774 
_cell_length_c                    63.234040573598975 
_cell_angle_alpha                 89.78674552328964 
_cell_angle_beta                  89.73199284455106 
_cell_angle_gamma                 87.07832222400343 
loop_ 
_atom_site_label 
_atom_site_type_symbol 
_atom_site_fract_x 
_atom_site_fract_y 
_atom_site_fract_z 
_atom_site_charge 
C1          C  0.04603707  0.95381502  0.10639785     0.03000
C2          C  0.06011015  0.53753265  0.08357047     0.02900
C3          C  0.51298798  0.45384248  0.07220801    -0.17600
C4          C  0.46622087  0.45561646  0.08311970     0.03000
C5          C  0.44932944  0.04024130  0.10645210     0.02900
C6          C  0.99952293  0.95225416  0.11701621    -0.17600
H7          H  0.49628018  0.03426616  0.13417059     0.05000
H8          H  0.01433028  0.54376205  0.05547538     0.05000
O9          O  0.20675353  0.46051308  0.96264072    -0.71100
O10         O  0.30248778  0.43508668  0.00690503    -0.71300
O11         O  0.20391949  0.46130044  0.00584099    -0.71200
O12         O  0.30521547  0.43417327  0.96367482    -0.71200
O13         O  0.28129233  0.05387378  0.96400493    -0.71100
O14         O  0.18983521  0.02450570  0.00868932    -0.71200
O15         O  0.28456433  0.05446751  0.00701875    -0.71100
O16         O  0.18639059  0.02407646  0.96583279    -0.71300
V17         V  0.25488793  0.44926656  0.98476352     1.35200
V18         V  0.23607276  0.03769238  0.98636588     1.35200
C19         C  0.18623002  0.98043653  0.95739554     0.78200
C20         C  0.31230945  0.01921461  0.01539469     0.78200
C21         C  0.19867456  0.50484014  0.01435866     0.78100
C22         C  0.32761689  0.47044724  0.95499371     0.78000
C23         C  0.19751890  0.99723943  0.18913400     0.03000
C24         C  0.19993635  0.99326174  0.16682878     0.02900
C25         C  0.24531021  0.00005823  0.15609385    -0.17600
C26         C  0.29046172  0.00833449  0.16653051     0.03000
C27         C  0.29248217  0.00738574  0.18886398     0.02900
C28         C  0.24497626  0.00288134  0.20006674    -0.17600
H29         H  0.24494029  0.00382980  0.21718191     0.05000
H30         H  0.24549566  0.99886873  0.13890223     0.05000
C31         C  0.06131035  0.53152156  0.86438339     0.03000
C32         C  0.06004716  0.53605018  0.88659085     0.02900
C33         C  0.51296882  0.43144750  0.89827007    -0.17600
C34         C  0.46787112  0.43650776  0.88650226     0.03000
C35         C  0.47133030  0.44473233  0.86445013     0.02900
C36         C  0.51945955  0.44180648  0.85485791    -0.17600
H37         H  0.52196056  0.44499636  0.83775408     0.05000
H38         H  0.51032994  0.42790426  0.91535533     0.05000
C39         C  0.22071526  0.50342530  0.80322803     0.03000
C40         C  0.21779234  0.50242782  0.78076561     0.02900
C41         C  0.26596821  0.49463457  0.76976908    -0.17600
C42         C  0.31433303  0.48595726  0.78045812     0.03000
C43         C  0.31262715  0.48355339  0.80293001     0.02900
C44         C  0.26696051  0.49422092  0.81347986    -0.17600
H45         H  0.26724521  0.49419233  0.83069749     0.05000
H46         H  0.26598940  0.49545921  0.75268128     0.05000
C47         C  0.99852563  0.19953472  0.68873912     0.03000
C48         C  0.98711661  0.20205221  0.66676540     0.02900
C49         C  0.98006206  0.24885232  0.65670960    -0.17600
C50         C  0.98699020  0.29490346  0.66660559     0.03000
C51         C  0.99455087  0.29678324  0.68881151     0.02900
C52         C  0.00054966  0.24798344  0.69950538    -0.17600
H53         H  0.00722234  0.24755447  0.71632203     0.05000
H54         H  0.97168034  0.24920514  0.63987358     0.05000
C55         C  0.94662831  0.04629755  0.58428773     0.03000
C56         C  0.95173288  0.04572130  0.60650018     0.02900
C57         C  0.95815786  0.99896719  0.61692961    -0.17600
C58         C  0.00230064  0.45181216  0.60453849     0.03000
C59         C  0.99946866  0.45417438  0.58232763     0.02900
C60         C  0.94418485  0.00002821  0.57354640    -0.17600
H61         H  0.94045453  0.00056263  0.55644298     0.05000
H62         H  0.96385319  0.99847240  0.63394123     0.05000
O63         O  0.02514138  0.28865563  0.50724560    -0.71100
O64         O  0.01678067  0.19154299  0.46313315    -0.71300
O65         O  0.02969234  0.29044446  0.46431500    -0.71200
O66         O  0.01274561  0.18928950  0.50613343    -0.71200
O67         O  0.44598362  0.21178215  0.50360050    -0.71100
O68         O  0.45938432  0.31219467  0.46078939    -0.71200
O69         O  0.44869108  0.21276673  0.46038291    -0.71100
O70         O  0.45657969  0.31147699  0.50375057    -0.71300
V71         V  0.01951180  0.24018311  0.48521338     1.35200
V72         V  0.45420500  0.26177282  0.48215813     1.35200
C73         C  0.98513594  0.31205855  0.51421495     0.78200
C74         C  0.97436968  0.18379714  0.45454101     0.78200
C75         C  0.99154931  0.31164269  0.45510525     0.78100
C76         C  0.96944326  0.18207674  0.51413769     0.78000
C77         C  0.00075608  0.99845542  0.73616809    -0.01800
C78         C  0.96214760  0.04890589  0.36233689     0.03000
C79         C  0.95836683  0.04969558  0.38456068     0.02900
C80         C  0.01168899  0.49526756  0.39700813    -0.17600
C81         C  0.01117374  0.44939285  0.38585620     0.03000
C82         C  0.01544038  0.45015463  0.36364549     0.02900
C83         C  0.01970980  0.49667783  0.35325595    -0.17600
H84         H  0.02185615  0.49735109  0.33609267     0.05000
H85         H  0.00854178  0.49464166  0.41413844     0.05000
C86         C  0.98940310  0.20371490  0.27874970     0.03000
C87         C  0.98279642  0.20600309  0.30090795     0.02900
C88         C  0.98147478  0.25233961  0.31138668    -0.17600
C89         C  0.98870553  0.29796034  0.30098072     0.03000
C90         C  0.99523052  0.29925811  0.27876003     0.02900
C91         C  0.99505605  0.25127188  0.26767559    -0.17600
H92         H  0.99960479  0.25089406  0.25065298     0.05000
H93         H  0.97695875  0.25260821  0.32849249     0.05000
C94         C  0.99499621  0.99965811  0.23494444    -0.01800
C95         C  0.00969083  0.45203812  0.24933904     0.00500
C96         C  0.04957379  0.41305767  0.24800079    -0.11300
C97         C  0.04495053  0.36337496  0.25656466     0.02800
C98         C  0.00076739  0.35081446  0.26788881     0.00500
C99         C  0.47450611  0.39503398  0.27148926    -0.11300
C100        C  0.47681993  0.44499858  0.26311483     0.02700
H101        H  0.08518466  0.42041774  0.24023623     0.15600
H102        H  0.44226186  0.38606227  0.28135332     0.15600
C103        C  0.43560243  0.48127369  0.26856402     0.37300
C104        C  0.08703302  0.32620954  0.25402416     0.37200
N105        N  0.40221448  0.50976407  0.27314150    -0.43100
N106        N  0.12079905  0.29639427  0.25200241    -0.43000
C107        C  0.98966012  0.15182454  0.26790600     0.00500
C108        C  0.02843228  0.11406727  0.27238484    -0.11300
C109        C  0.02793267  0.06386532  0.26403832     0.02800
C110        C  0.98937834  0.04998072  0.24946170     0.00500
C111        C  0.45427715  0.09643916  0.24631086    -0.11300
C112        C  0.45874202  0.14597523  0.25470410     0.02700
H113        H  0.05957725  0.12384233  0.28258180     0.15600
H114        H  0.41865904  0.08901119  0.23874896     0.15600
C115        C  0.41697244  0.18339307  0.25188596     0.37300
C116        C  0.06952766  0.02849234  0.26989870     0.37200
N117        N  0.38363375  0.21356271  0.24960708    -0.43100
N118        N  0.10317040  0.00062915  0.27474118    -0.43000
C119        C  0.99462332  0.34178588  0.31513677     0.00500
C120        C  0.04422380  0.35232412  0.32143457    -0.11300
C121        C  0.05200611  0.38406026  0.33872603     0.02800
C122        C  0.00969077  0.40573363  0.34993623     0.00500
C123        C  0.46750969  0.39439191  0.34229943    -0.11300
C124        C  0.46532522  0.36044846  0.32548966     0.02700
H125        H  0.07684168  0.33419766  0.31329611     0.15600
H126        H  0.43245918  0.40802087  0.35003379     0.15600
C127        C  0.41662059  0.34058045  0.32011492     0.37300
C128        C  0.10361330  0.39425185  0.34469137     0.37200
N129        N  0.37765871  0.32462159  0.31577394    -0.43100
N130        N  0.14496191  0.40231989  0.34954526    -0.43000
C131        C  0.97910619  0.16125387  0.31482368     0.00500
C132        C  0.45567013  0.14748476  0.31704042    -0.11300
C133        C  0.44742125  0.11435121  0.33388235     0.02800
C134        C  0.96447371  0.09429777  0.34882201     0.00500
C135        C  0.01249471  0.11377679  0.34523788    -0.11300
C136        C  0.02007226  0.14705895  0.32838957     0.02700
H137        H  0.42381267  0.16113889  0.30729310     0.15600
H138        H  0.04457638  0.10124721  0.35507640     0.15600
C139        C  0.07010380  0.16670305  0.32530768     0.37300
C140        C  0.39721437  0.09492934  0.33672119     0.37200
N141        N  0.11009579  0.18253627  0.32271076    -0.43100
N142        N  0.35717007  0.07892339  0.33893541    -0.43000
C143        C  0.00551762  0.40314516  0.39872096     0.00500
C144        C  0.04956334  0.38164076  0.40834525    -0.11300
C145        C  0.04633691  0.35193834  0.42669251     0.02800
C146        C  0.99780861  0.34286624  0.43565415     0.00500
C147        C  0.46217559  0.36731483  0.42276055    -0.11300
C148        C  0.46354689  0.39767493  0.40459329     0.02700
H149        H  0.08678191  0.39145257  0.40242649     0.15600
H150        H  0.42545734  0.35569175  0.42850893     0.15600
C151        C  0.41582989  0.41465747  0.39487784     0.37300
C152        C  0.09375290  0.33368909  0.43631308     0.37200
N153        N  0.37751669  0.42825282  0.38715829    -0.43100
N154        N  0.13190440  0.31932504  0.44396856    -0.43000
C155        C  0.96053479  0.09591805  0.39757584     0.00500
C156        C  0.52602711  0.11919956  0.40179384    -0.11300
C157        C  0.53030062  0.15001361  0.41968992     0.02800
C158        C  0.97104851  0.15404639  0.43467278     0.00500
C159        C  0.92236178  0.14294782  0.42712426    -0.11300
C160        C  0.91691096  0.11421165  0.40877028     0.02700
H161        H  0.56021850  0.10635469  0.39320142     0.15600
H162        H  0.88831736  0.15541781  0.43587951     0.15600
C163        C  0.86639415  0.10119469  0.40233777     0.37300
C164        C  0.58019345  0.16768549  0.42461665     0.37200
N165        N  0.82595225  0.09079921  0.39711362    -0.43100
N166        N  0.62017568  0.18201383  0.42844574    -0.43000
C167        C  0.98683748  0.34567815  0.53301548     0.00500
C168        C  0.03201240  0.34557556  0.54505863    -0.11300
C169        C  0.03568507  0.37745026  0.56266870     0.02800
C170        C  0.99358990  0.40973013  0.56856075     0.00500
C171        C  0.46348903  0.41426865  0.55646745    -0.11300
C172        C  0.45851266  0.38325001  0.53878657     0.02700
H173        H  0.06500525  0.32141227  0.54047472     0.15600
H174        H  0.43193776  0.44047418  0.56095427     0.15600
C175        C  0.40997885  0.38620905  0.52798148     0.37300
C176        C  0.08384389  0.37900234  0.57359261     0.37200
N177        N  0.37094385  0.38884372  0.51944001    -0.43100
N178        N  0.12238741  0.38046013  0.58238387    -0.43000
C179        C  0.96450940  0.15002551  0.53347175     0.00500
C180        C  0.43243987  0.14696763  0.53900554    -0.11300
C181        C  0.42690795  0.11635306  0.55702174     0.02800
C182        C  0.95250469  0.09144995  0.57071172     0.00500
C183        C  0.00094867  0.09636115  0.56171181    -0.11300
C184        C  0.00736995  0.12450960  0.54319516     0.02700
H185        H  0.39846091  0.16122942  0.53072072     0.15600
H186        H  0.03345810  0.07441868  0.56825616     0.15600
C187        C  0.05810562  0.12348807  0.53409548     0.37300
C188        C  0.37628876  0.10359852  0.56364683     0.37200
N189        N  0.09880035  0.12209743  0.52683974    -0.43100
N190        N  0.33573569  0.09337788  0.56898725    -0.43000
C191        C  0.00067774  0.40492396  0.61717392     0.00500
C192        C  0.04279617  0.39234850  0.63023058    -0.11300
C193        C  0.03837715  0.35901014  0.64734817     0.02800
C194        C  0.99117760  0.33765470  0.65151443     0.00500
C195        C  0.46348146  0.35642358  0.63638480    -0.11300
C196        C  0.46860911  0.39121675  0.61991705     0.02700
H197        H  0.07851487  0.41064419  0.62759607     0.15600
H198        H  0.42741668  0.33844835  0.63854961     0.15600
C199        C  0.42356228  0.40724621  0.60808284     0.37300
C200        C  0.08291721  0.34621264  0.66002223     0.37200
N201        N  0.38696175  0.42012334  0.59892748    -0.43100
N202        N  0.11856428  0.33579782  0.67019938    -0.43000
C203        C  0.95559632  0.09116574  0.61990407     0.00500
C204        C  0.99952536  0.11891220  0.61818752    -0.11300
C205        C  0.01174284  0.15316255  0.63394186     0.02800
C206        C  0.98065089  0.15865612  0.65234112     0.00500
C207        C  0.44789596  0.13942300  0.64963659    -0.11300
C208        C  0.43695109  0.10639531  0.63316462     0.02700
H209        H  0.02545227  0.11240565  0.60496306     0.15600
H210        H  0.42006140  0.14693374  0.66214081     0.15600
C211        C  0.38927038  0.08107264  0.63369835     0.37300
C212        C  0.05635225  0.18274750  0.63084827     0.37200
N213        N  0.35114410  0.06064685  0.63406018    -0.43100
N214        N  0.09175603  0.20679374  0.62838391    -0.43000
C215        C  0.01253136  0.44508150  0.72220424     0.00500
C216        C  0.48298782  0.44416742  0.70344064    -0.11300
C217        C  0.47400026  0.39672225  0.69376326     0.02800
C218        C  0.99800545  0.34813413  0.70052511     0.00500
C219        C  0.02734419  0.35064580  0.71895800    -0.11300
C220        C  0.03025582  0.39612175  0.73069152     0.02700
H221        H  0.46103152  0.47765697  0.69815841     0.15600
H222        H  0.04683256  0.31629124  0.72501963     0.15600
C223        C  0.05201838  0.38940323  0.75150930     0.37300
C224        C  0.42805240  0.39432980  0.68142117     0.37200
N225        N  0.06962472  0.38275335  0.76810241    -0.43100
N226        N  0.39004620  0.39311104  0.67221846    -0.43000
C227        C  0.00427267  0.14821658  0.70075513     0.00500
C228        C  0.48421292  0.15148391  0.71894675    -0.11300
C229        C  0.48425468  0.10646327  0.73122286     0.02800
C230        C  0.00227492  0.05091482  0.72348202     0.00500
C231        C  0.02056298  0.05406922  0.70253247    -0.11300
C232        C  0.02650257  0.10174153  0.69226123     0.02700
H233        H  0.46687104  0.18619728  0.72564061     0.15600
H234        H  0.03352175  0.01954793  0.69447430     0.15600
C235        C  0.06346729  0.10189302  0.67533169     0.37300
C236        C  0.46588527  0.11357027  0.75265010     0.37200
N237        N  0.09491930  0.10049181  0.66240609    -0.43100
N238        N  0.45047082  0.12073482  0.76962947    -0.43000
C239        C  0.36515061  0.48527981  0.76822048     0.00500
C240        C  0.35213258  0.02757395  0.75288661    -0.11300
C241        C  0.39757090  0.02764359  0.74072186     0.02800
C242        C  0.44571610  0.00632155  0.74876437     0.00500
C243        C  0.45764012  0.46332085  0.76377112    -0.11300
C244        C  0.40963169  0.45398773  0.77311180     0.02700
H245        H  0.31827666  0.04826766  0.74695039     0.15600
H246        H  0.49070930  0.44071688  0.76906197     0.15600
C247        C  0.40659001  0.40718683  0.78497400     0.37300
C248        C  0.39141679  0.04968267  0.71984086     0.37200
N249        N  0.40538917  0.36865452  0.79390100    -0.43100
N250        N  0.38552208  0.06754172  0.70320005    -0.43000
C251        C  0.16612867  0.50522348  0.76886915     0.00500
C252        C  0.16128102  0.47721558  0.75016589    -0.11300
C253        C  0.11506586  0.47715226  0.73869917     0.02800
C254        C  0.05250271  0.00000370  0.74929651     0.00500
C255        C  0.05412717  0.01684936  0.77040916    -0.11300
C256        C  0.10113425  0.02361190  0.78100290     0.02700
H257        H  0.19450306  0.45617006  0.74379779     0.15600
H258        H  0.01885718  0.02883548  0.77825028     0.15600
C259        C  0.09896715  0.06103623  0.79762090     0.37300
C260        C  0.11997302  0.45647147  0.71759023     0.37200
N261        N  0.09520066  0.09300966  0.81018404    -0.43100
N262        N  0.12495363  0.43980789  0.70073395    -0.43000
C263        C  0.42751829  0.45791546  0.85042540     0.00500
C264        C  0.39043606  0.42223432  0.84748875    -0.11300
C265        C  0.35459153  0.42879454  0.83127504     0.02800
C266        C  0.35595545  0.47145268  0.81740594     0.00500
C267        C  0.36204631  0.05977130  0.81895576    -0.11300
C268        C  0.39529058  0.07576412  0.83459338     0.02700
H269        H  0.39057684  0.38836910  0.85739973     0.15600
H270        H  0.35160884  0.08519578  0.80593395     0.15600
C271        C  0.41620179  0.12546152  0.83249760     0.37300
C272        C  0.31695582  0.39079473  0.82890397     0.37200
N273        N  0.43295171  0.16527935  0.83082279    -0.43100
N274        N  0.28674626  0.36046857  0.82697725    -0.43000
C275        C  0.10786234  0.52170790  0.85170526     0.00500
C276        C  0.11094963  0.47678685  0.83953517    -0.11300
C277        C  0.14559047  0.47113730  0.82279976     0.02800
C278        C  0.17771006  0.51088855  0.81808531     0.00500
C279        C  0.15009413  0.01842087  0.83807946    -0.11300
C280        C  0.11583161  0.00774741  0.85420641     0.02700
H281        H  0.08461876  0.44698199  0.84263038     0.15600
H282        H  0.16712015  0.05529949  0.83775053     0.15600
C283        C  0.09939589  0.04908730  0.86800868     0.37300
C284        C  0.14902422  0.42377218  0.81120987     0.37200
N285        N  0.08688539  0.08360623  0.87848590    -0.43100
N286        N  0.15243118  0.38573087  0.80198011    -0.43000
C287        C  0.34415301  0.00773522  0.19987759     0.00500
C288        C  0.37835828  0.04662998  0.19579673    -0.11300
C289        C  0.42874243  0.04507573  0.20413573     0.02800
C290        C  0.44595123  0.00580868  0.21854195     0.00500
C291        C  0.43038278  0.45617638  0.21992878    -0.11300
C292        C  0.38098434  0.45491130  0.21122322     0.02700
H293        H  0.36585604  0.07845188  0.18578888     0.15600
H294        H  0.44476915  0.42157363  0.22756681     0.15600
C295        C  0.35319666  0.40909922  0.21373779     0.37300
C296        C  0.46126432  0.08540920  0.19795657     0.37200
N297        N  0.33105532  0.37227910  0.21567507    -0.43100
N298        N  0.48692743  0.11798530  0.19287509    -0.43000
C299        C  0.04458040  0.00257848  0.22000174     0.00500
C300        C  0.07804606  0.04367926  0.22108692    -0.11300
C301        C  0.12778220  0.04120622  0.21226460     0.02800
C302        C  0.14571994  0.99854762  0.20036526     0.00500
C303        C  0.12454986  0.46350832  0.19669510    -0.11300
C304        C  0.07454427  0.46597120  0.20555831     0.02700
H305        H  0.06621060  0.07893477  0.22877952     0.15600
H306        H  0.13562782  0.43200512  0.18633337     0.15600
C307        C  0.04076802  0.42694557  0.19934766     0.37300
C308        C  0.15931939  0.08416830  0.21522251     0.37200
N309        N  0.01421879  0.39538569  0.19414812    -0.43100
N310        N  0.18471611  0.11848107  0.21767144    -0.43000
C311        C  0.35868393  0.46166947  0.93542907     0.00500
C312        C  0.37454261  0.41140003  0.92991615    -0.11300
C313        C  0.40534116  0.40145355  0.91208874     0.02800
C314        C  0.42028924  0.44206120  0.89914082     0.00500
C315        C  0.37224173  0.08089062  0.90780265    -0.11300
C316        C  0.34006181  0.07484452  0.92538214     0.02700
H317        H  0.36463517  0.37983343  0.94000476     0.15600
H318        H  0.37344065  0.11783822  0.90009366     0.15600
C319        C  0.30696277  0.11797262  0.93155293     0.37300
C320        C  0.42438693  0.34966079  0.90818965     0.37200
N321        N  0.28038653  0.15262450  0.93639311    -0.43100
N322        N  0.43984954  0.30821603  0.90509831    -0.43000
C323        C  0.16925403  0.51414902  0.93556066     0.00500
C324        C  0.11134401  0.00751233  0.93583025    -0.11300
C325        C  0.07800865  0.00266544  0.91898127     0.02800
C326        C  0.10552891  0.53365822  0.90036414     0.00500
C327        C  0.13485824  0.48759017  0.90181881    -0.11300
C328        C  0.16689890  0.47766382  0.91919284     0.02700
H329        H  0.10442371  0.03889826  0.94677485     0.15600
H330        H  0.13038295  0.45814266  0.89006687     0.15600
C331        C  0.19729226  0.43015018  0.91965559     0.37300
C332        C  0.03552616  0.03989759  0.91718005     0.37200
N333        N  0.22191423  0.39222994  0.91990616    -0.43100
N334        N  0.00165065  0.06980568  0.91578854    -0.43000
C335        C  0.40418693  0.03083760  0.11952714     0.00500
C336        C  0.40045744  0.42662931  0.12788673    -0.11300
C337        C  0.36635650  0.43140218  0.14496210     0.02800
C338        C  0.33418859  0.01694272  0.15254157     0.00500
C339        C  0.33430998  0.06361359  0.14155945    -0.11300
C340        C  0.36903929  0.07084481  0.12512710     0.02700
H341        H  0.41327998  0.38899264  0.12235848     0.15600
H342        H  0.30650695  0.09410225  0.14565439     0.15600
C343        C  0.36904854  0.11993658  0.11473409     0.37300
C344        C  0.34623069  0.38583105  0.15393116     0.37200
N345        N  0.36894505  0.15928109  0.10638202    -0.43100
N346        N  0.33007485  0.34927158  0.16108383    -0.43000
C347        C  0.15663720  0.98285789  0.15305724     0.00500
C348        C  0.14991246  0.46322437  0.14289420    -0.11300
C349        C  0.11645710  0.47148868  0.12600691     0.02800
C350        C  0.09017528  0.96477072  0.11952640     0.00500
C351        C  0.09094042  0.01346648  0.12868804    -0.11300
C352        C  0.12419319  0.02286639  0.14525053     0.02700
H353        H  0.16135696  0.42451864  0.14761876     0.15600
H354        H  0.06432232  0.04372131  0.12327654     0.15600
C355        C  0.12537730  0.07389061  0.15366829     0.37300
C356        C  0.09341781  0.42803175  0.11672130     0.37200
N357        N  0.12650454  0.11478943  0.16040141    -0.43100
N358        N  0.07477259  0.39320996  0.10936890    -0.43000
C359        C  0.41970303  0.45382180  0.07004776     0.00500
C360        C  0.38611935  0.08384939  0.05884887    -0.11300
C361        C  0.35614391  0.07797935  0.04082763     0.02800
C362        C  0.34303158  0.02857051  0.03454236     0.00500
C363        C  0.38104401  0.41794778  0.03883620    -0.11300
C364        C  0.41328790  0.41218818  0.05635968     0.02700
H365        H  0.39921162  0.12127707  0.06271027     0.15600
H366        H  0.37816880  0.38650962  0.02788140     0.15600
C367        C  0.44231002  0.36436618  0.05923828     0.37300
C368        C  0.34236533  0.12302734  0.02850839     0.37200
N369        N  0.46588811  0.32624975  0.06157145    -0.43100
N370        N  0.33144616  0.15924941  0.01868362    -0.43000
C371        C  0.16771985  0.51308089  0.03393699     0.00500
C372        C  0.13438714  0.01299745  0.04633754    -0.11300
C373        C  0.10266005  0.00672068  0.06390020     0.02800
C374        C  0.10664013  0.53157652  0.07037911     0.00500
C375        C  0.12431077  0.48185955  0.06526679    -0.11300
C376        C  0.15490746  0.47223226  0.04739092     0.02700
H377        H  0.13999417  0.05134867  0.04061416     0.15600
H378        H  0.11122136  0.45001992  0.07440135     0.15600
C379        C  0.17210153  0.41994246  0.04337129     0.37300
C380        C  0.07751658  0.05140921  0.07335433     0.37200
N381        N  0.18591993  0.37798693  0.04029556    -0.43100
N382        N  0.05743126  0.08721836  0.08094018    -0.43000
C383        C  0.05906550  0.53205600  0.10575769     0.03000
C384        C  0.04748592  0.94897801  0.08422484     0.02900
C385        C  0.49503450  0.05173320  0.07351104    -0.17600
C386        C  0.44873798  0.04676419  0.08428714     0.03000
C387        C  0.46611907  0.46331378  0.10518732     0.02900
C388        C  0.01235233  0.53254849  0.11635555    -0.17600
H389        H  0.51201186  0.47221281  0.13271917     0.05000
H390        H  0.00264647  0.94118040  0.05615980     0.05000
O391        O  0.21614119  0.94543056  0.96472044    -0.71100
O392        O  0.31102161  0.97477653  0.00773029    -0.71300
O393        O  0.21613254  0.94485844  0.00782800    -0.71200
O394        O  0.31116657  0.97532544  0.96464508    -0.71200
O395        O  0.32088762  0.51453128  0.96290443    -0.71100
O396        O  0.22253787  0.54090588  0.00629620    -0.71200
O397        O  0.32082705  0.51487891  0.00602649    -0.71100
O398        O  0.22237619  0.54102104  0.96330795    -0.71300
V399        V  0.26314972  0.96160130  0.98622819     1.35200
V400        V  0.27140169  0.52623251  0.98461403     1.35200
C401        C  0.20029489  0.50476123  0.95475425     0.78200
C402        C  0.32547617  0.47163358  0.01486815     0.78200
C403        C  0.18875706  0.98005145  0.01649166     0.78100
C404        C  0.31042273  0.01904237  0.95605030     0.78000
C405        C  0.21237861  0.49796087  0.18959168     0.03000
C406        C  0.21398126  0.49453591  0.16730102     0.02900
C407        C  0.26003852  0.48754574  0.15655275    -0.17600
C408        C  0.30655233  0.48736616  0.16683639     0.03000
C409        C  0.30839090  0.49485582  0.18893708     0.02900
C410        C  0.26063425  0.49859126  0.20034408    -0.17600
H411        H  0.26108435  0.50216215  0.21739098     0.05000
H412        H  0.25972498  0.48419254  0.13941898     0.05000
C413        C  0.04794177  0.95154200  0.86746618     0.03000
C414        C  0.04383102  0.95002711  0.88979229     0.02900
C415        C  0.49613237  0.05713906  0.89911742    -0.17600
C416        C  0.45064266  0.05257619  0.88799704     0.03000
C417        C  0.45190373  0.05287687  0.86564231     0.02900
C418        C  0.49919528  0.05332642  0.85537347    -0.17600
H419        H  0.50060305  0.05044158  0.83824560     0.05000
H420        H  0.49483045  0.05710792  0.91628761     0.05000
C421        C  0.20369636  0.99483906  0.80707079     0.03000
C422        C  0.20053197  0.00046977  0.78467366     0.02900
C423        C  0.24897706  0.00205014  0.77358698    -0.17600
C424        C  0.29778673  0.00068454  0.78416419     0.03000
C425        C  0.29640700  0.00192197  0.80660947     0.02900
C426        C  0.25022430  0.99856099  0.81723404    -0.17600
H427        H  0.25042306  0.99887427  0.83441192     0.05000
H428        H  0.24906296  0.00451674  0.75656296     0.05000
C429        C  0.01216754  0.70056570  0.68978954     0.03000
C430        C  0.00773608  0.70284226  0.66743486     0.02900
C431        C  0.99719599  0.74897468  0.65724074    -0.17600
C432        C  0.99174889  0.79504904  0.66775790     0.03000
C433        C  0.99650794  0.79683424  0.69009499     0.02900
C434        C  0.00666866  0.74866727  0.70077654    -0.17600
H435        H  0.01010140  0.74862192  0.71780319     0.05000
H436        H  0.99291790  0.74900785  0.64012515     0.05000
C437        C  0.99998602  0.54690741  0.58386584     0.03000
C438        C  0.99952413  0.54441907  0.60612690     0.02900
C439        C  0.00291146  0.49687214  0.61605366    -0.17600
C440        C  0.96010336  0.95289138  0.60600229     0.03000
C441        C  0.95154583  0.95315834  0.58397609     0.02900
C442        C  0.99986668  0.50168179  0.57229247    -0.17600
H443        H  0.99877316  0.50357250  0.55513954     0.05000
H444        H  0.00446672  0.49489156  0.63320600     0.05000
O445        O  0.01471219  0.80511143  0.50643669    -0.71100
O446        O  0.03469427  0.70519628  0.46341032    -0.71300
O447        O  0.01844652  0.80546014  0.46342167    -0.71200
O448        O  0.03135974  0.70514197  0.50648448    -0.71200
O449        O  0.46310602  0.70404037  0.50447609    -0.71100
O450        O  0.44997798  0.80186932  0.46008977    -0.71200
O451        O  0.46268553  0.70152672  0.46139323    -0.71100
O452        O  0.44985872  0.80422424  0.50309760    -0.71300
V453        V  0.02322520  0.75505857  0.48490735     1.35200
V454        V  0.45799399  0.75303012  0.48225956     1.35200
C455        C  0.97044534  0.81644962  0.51365155     0.78200
C456        C  0.99697553  0.68444279  0.45525822     0.78200
C457        C  0.97637818  0.81480143  0.45415816     0.78100
C458        C  0.99233080  0.68682167  0.51478501     0.78000
C459        C  0.01387756  0.49694810  0.73532075    -0.01800
C460        C  0.01696982  0.54269655  0.36429635     0.03000
C461        C  0.01334548  0.54212783  0.38653686     0.02900
C462        C  0.95683355  0.00352112  0.39562606    -0.17600
C463        C  0.96225297  0.95671644  0.38518666     0.03000
C464        C  0.96895911  0.95637436  0.36310512     0.02900
C465        C  0.96695369  0.00225056  0.35192862    -0.17600
H466        H  0.97124893  0.00165568  0.33482814     0.05000
H467        H  0.95388999  0.00399620  0.41276059     0.05000
C468        C  0.00802637  0.70220617  0.28127565     0.03000
C469        C  0.01209804  0.70412027  0.30356544     0.02900
C470        C  0.00864489  0.75049012  0.31402474    -0.17600
C471        C  0.00192154  0.79648602  0.30333728     0.03000
C472        C  0.00192275  0.79818415  0.28101285     0.02900
C473        C  0.00446129  0.75014093  0.27005717    -0.17600
H474        H  0.00317102  0.75004325  0.25294765     0.05000
H475        H  0.00935751  0.75070407  0.33122060     0.05000
C476        C  0.00798760  0.50236945  0.23474295    -0.01800
C477        C  0.00083033  0.95041162  0.25007311     0.00500
C478        C  0.04378072  0.91484835  0.24898118    -0.11300
C479        C  0.04390122  0.86556821  0.25817932     0.02800
C480        C  0.00136407  0.84976101  0.26976791     0.00500
C481        C  0.46065012  0.89630962  0.27058825    -0.11300
C482        C  0.46314361  0.94644786  0.26236788     0.02700
H483        H  0.07846788  0.92480574  0.24108285     0.15600
H484        H  0.42831227  0.88740148  0.28041594     0.15600
C485        C  0.42323294  0.98349366  0.26854075     0.37300
C486        C  0.08938493  0.83243881  0.25616838     0.37200
N487        N  0.39120940  0.01293053  0.27370495    -0.43100
N488        N  0.12594956  0.80600021  0.25464144    -0.43000
C489        C  0.00610745  0.65066597  0.27027951     0.00500
C490        C  0.04424725  0.61170263  0.27396755    -0.11300
C491        C  0.04211586  0.56239330  0.26495032     0.02800
C492        C  0.00351628  0.55133382  0.24996721     0.00500
C493        C  0.46186881  0.59161824  0.24588224    -0.11300
C494        C  0.46138961  0.64137307  0.25453560     0.02700
H495        H  0.07616883  0.61972982  0.28405690     0.15600
H496        H  0.42714025  0.58088832  0.23841459     0.15600
C497        C  0.41559082  0.67399386  0.25250408     0.37300
C498        C  0.08199646  0.52485852  0.27059353     0.37200
N499        N  0.37881562  0.70011309  0.25100756    -0.43100
N500        N  0.11404780  0.49502475  0.27530613    -0.43000
C501        C  0.99251279  0.84098828  0.31708398     0.00500
C502        C  0.03450517  0.86588940  0.32483176    -0.11300
C503        C  0.02820854  0.90069826  0.34140485     0.02800
C504        C  0.97936872  0.91032455  0.35050261     0.00500
C505        C  0.44283155  0.89382803  0.34193364    -0.11300
C506        C  0.44227961  0.86019133  0.32487667     0.02700
H507        H  0.07223351  0.85726951  0.31821558     0.15600
H508        H  0.40736539  0.90522493  0.34994356     0.15600
C509        C  0.39448554  0.83929115  0.31891372     0.37300
C510        C  0.07192848  0.92720124  0.34855725     0.37200
N511        N  0.35618247  0.82278697  0.31398887    -0.43100
N512        N  0.10678370  0.94863136  0.35432428    -0.43000
C513        C  0.01537660  0.65922180  0.31762377     0.00500
C514        C  0.45963333  0.63944206  0.31701602    -0.11300
C515        C  0.45817161  0.60494148  0.33383015     0.02800
C516        C  0.01339912  0.58903584  0.35121742     0.00500
C517        C  0.05842084  0.61326795  0.34647231    -0.11300
C518        C  0.05963662  0.64845049  0.32985391     0.02700
H519        H  0.42598638  0.64692211  0.30732748     0.15600
H520        H  0.09301180  0.60326111  0.35524245     0.15600
C521        C  0.10658201  0.67323281  0.32554028     0.37300
C522        C  0.41260876  0.57695975  0.33693932     0.37200
N523        N  0.14409437  0.69322160  0.32202994    -0.43100
N524        N  0.37623693  0.55430921  0.33934293    -0.43000
C525        C  0.96468031  0.91060139  0.39860630     0.00500
C526        C  0.01275476  0.89171781  0.40538243    -0.11300
C527        C  0.01762060  0.85993951  0.42316854     0.02800
C528        C  0.97341901  0.84677489  0.43465759     0.00500
C529        C  0.43787098  0.87530640  0.42695224    -0.11300
C530        C  0.43301824  0.90703109  0.40917501     0.02700
H531        H  0.04677766  0.90440934  0.39750932     0.15600
H532        H  0.40472984  0.87032205  0.43694786     0.15600
C533        C  0.38408725  0.93275524  0.40484779     0.37300
C534        C  0.06863081  0.84238722  0.42925790     0.37200
N535        N  0.34497657  0.95349495  0.40133519    -0.43100
N536        N  0.10957821  0.82839189  0.43406687    -0.43000
C537        C  0.00778114  0.58807070  0.39993089     0.00500
C538        C  0.55258440  0.61463812  0.40414136    -0.11300
C539        C  0.55363000  0.64436792  0.42248332     0.02800
C540        C  0.00250227  0.65151960  0.43611844     0.00500
C541        C  0.95799492  0.63262439  0.42731857    -0.11300
C542        C  0.96031470  0.60114845  0.40952860     0.02700
H543        H  0.58825996  0.59994189  0.39715388     0.15600
H544        H  0.92106663  0.64134822  0.43462952     0.15600
C545        C  0.91379148  0.57983068  0.40223506     0.37300
C546        C  0.60297784  0.65606459  0.43071495     0.37200
N547        N  0.87645482  0.56263837  0.39654016    -0.43100
N548        N  0.64266382  0.66519647  0.43726113    -0.43000
C549        C  0.96353017  0.84799493  0.53305572     0.00500
C550        C  0.00656489  0.85588604  0.54568048    -0.11300
C551        C  0.00258162  0.88545610  0.56406403     0.02800
C552        C  0.95477857  0.90759730  0.57025644     0.00500
C553        C  0.43317863  0.89836742  0.55831827    -0.11300
C554        C  0.43560479  0.86905201  0.53991223     0.02700
H555        H  0.04383829  0.83980743  0.54097974     0.15600
H556        H  0.39645278  0.91447997  0.56368235     0.15600
C557        C  0.38778218  0.85889625  0.52986291     0.37300
C558        C  0.04867083  0.89566920  0.57538155     0.37200
N559        N  0.34931539  0.85084147  0.52191627    -0.43100
N560        N  0.08573557  0.90373018  0.58439395    -0.43000
C561        C  0.99623685  0.65591497  0.53454723     0.00500
C562        C  0.46642024  0.65168641  0.54360653    -0.11300
C563        C  0.46830606  0.62176923  0.56200811     0.02800
C564        C  0.99927461  0.59442169  0.57135053     0.00500
C565        C  0.04456903  0.60580006  0.56090231    -0.11300
C566        C  0.04364422  0.63640680  0.54273443     0.02700
H567        H  0.42962426  0.66717667  0.53814128     0.15600
H568        H  0.08047070  0.58745853  0.56606807     0.15600
C569        C  0.09184566  0.64450129  0.53239240     0.37300
C570        C  0.42119774  0.61108726  0.57269989     0.37200
N571        N  0.13062312  0.65094821  0.52421584    -0.43100
N572        N  0.38354571  0.60255038  0.58135644    -0.43000
C573        C  0.97067258  0.90703290  0.61902962     0.00500
C574        C  0.01637740  0.90415263  0.63073085    -0.11300
C575        C  0.02274760  0.87049270  0.64780261     0.02800
C576        C  0.98301774  0.83891112  0.65330988     0.00500
C577        C  0.44404957  0.85024618  0.63973009    -0.11300
C578        C  0.44166754  0.88423813  0.62270888     0.02700
H579        H  0.04624775  0.92998796  0.62703587     0.15600
H580        H  0.41197299  0.82666512  0.64283478     0.15600
C581        C  0.39412794  0.89132328  0.61136418     0.37300
C582        C  0.07059183  0.86797777  0.65908468     0.37200
N583        N  0.35566374  0.89706700  0.60253094    -0.43100
N584        N  0.10887886  0.86574031  0.66817728    -0.43000
C585        C  0.99755335  0.58903850  0.62011065     0.00500
C586        C  0.03896202  0.62047913  0.61996552    -0.11300
C587        C  0.04441904  0.65593915  0.63601829     0.02800
C588        C  0.00875994  0.65903360  0.65296504     0.00500
C589        C  0.47094446  0.63306294  0.65021879    -0.11300
C590        C  0.46929864  0.59828547  0.63361849     0.02700
H591        H  0.06791333  0.61618332  0.60769597     0.15600
H592        H  0.44082143  0.63485972  0.66206423     0.15600
C593        C  0.42757614  0.56431592  0.63308749     0.37300
C594        C  0.08690610  0.68897559  0.63481178     0.37200
N595        N  0.39435096  0.53689688  0.63267903    -0.43100
N596        N  0.12080853  0.71552657  0.63385311    -0.43000
C597        C  0.00195690  0.94565135  0.72355219     0.00500
C598        C  0.46675759  0.94563916  0.70593119    -0.11300
C599        C  0.46043234  0.89711696  0.69659479     0.02800
C600        C  0.99473546  0.84771578  0.70205613     0.00500
C601        C  0.02794054  0.85355778  0.71904648    -0.11300
C602        C  0.02790274  0.89892216  0.73090973     0.02700
H603        H  0.44397932  0.97799024  0.70004072     0.15600
H604        H  0.05255939  0.82128302  0.72400968     0.15600
C605        C  0.05173414  0.89294416  0.75139442     0.37300
C606        C  0.41448106  0.89208493  0.68449943     0.37200
N607        N  0.07056453  0.88702784  0.76780105    -0.43100
N608        N  0.37631053  0.88916175  0.67554396    -0.43000
C609        C  0.01753596  0.64927917  0.70172531     0.00500
C610        C  0.49903303  0.64810408  0.72132330    -0.11300
C611        C  0.50189355  0.60122444  0.73255905     0.02800
C612        C  0.01341336  0.55052655  0.72322767     0.00500
C613        C  0.04104917  0.55649305  0.70425129    -0.11300
C614        C  0.04662354  0.60499594  0.69464991     0.02700
H615        H  0.48100641  0.68106822  0.72908668     0.15600
H616        H  0.06104412  0.52357106  0.69735463     0.15600
C617        C  0.08841033  0.60866317  0.67992032     0.37300
C618        C  0.48537878  0.60417287  0.75437157     0.37200
N619        N  0.12335260  0.61017531  0.66871295    -0.43100
N620        N  0.47120927  0.60783807  0.77169538    -0.43000
C621        C  0.34882081  0.00014296  0.77187869     0.00500
C622        C  0.36960871  0.51851863  0.75098031    -0.11300
C623        C  0.41530014  0.52151772  0.73929997     0.02800
C624        C  0.46292795  0.49787964  0.74678834     0.00500
C625        C  0.44167746  0.97785059  0.76761992    -0.11300
C626        C  0.39429633  0.97183975  0.77813338     0.02700
H627        H  0.33634217  0.54162702  0.74594355     0.15600
H628        H  0.47533823  0.95749881  0.77371736     0.15600
C629        C  0.39295200  0.93048602  0.79314057     0.37300
C630        C  0.40949462  0.54784482  0.71925060     0.37200
N631        N  0.39345064  0.89573549  0.80447382    -0.43100
N632        N  0.40377567  0.56885429  0.70323117    -0.43000
C633        C  0.14882112  0.00291338  0.77275187     0.00500
C634        C  0.14705295  0.98540931  0.75181115    -0.11300
C635        C  0.10177009  0.98815299  0.73973664     0.02800
C636        C  0.06722485  0.49705605  0.74763450     0.00500
C637        C  0.07262503  0.52600052  0.76620992    -0.11300
C638        C  0.12109407  0.53419670  0.77532883     0.02700
H639        H  0.18162103  0.96987645  0.74431934     0.15600
H640        H  0.03933280  0.54573847  0.77293160     0.15600
C641        C  0.12402602  0.57951805  0.78798307     0.37300
C642        C  0.10834849  0.97461575  0.71773040     0.37200
N643        N  0.12511407  0.61722618  0.79738898    -0.43100
N644        N  0.11542441  0.96296978  0.70028044    -0.43000
C645        C  0.40769365  0.04355596  0.85203011     0.00500
C646        C  0.38592716  0.99613809  0.85353973    -0.11300
C647        C  0.35191709  0.98058742  0.83827819     0.02800
C648        C  0.34011616  0.01226817  0.82053509     0.00500
C649        C  0.39229968  0.50778790  0.82067310    -0.11300
C650        C  0.42784112  0.50148855  0.83703885     0.02700
H651        H  0.39677371  0.97027029  0.86629710     0.15600
H652        H  0.39205000  0.54165473  0.81076314     0.15600
C653        C  0.46451314  0.54026464  0.83979559     0.37300
C654        C  0.32922309  0.93196318  0.84137784     0.37200
N655        N  0.49415950  0.57105190  0.84196675    -0.43100
N656        N  0.31091173  0.89317068  0.84396399    -0.43000
C657        C  0.09516339  0.95928535  0.85529470     0.00500
C658        C  0.10962182  0.92255718  0.83987865    -0.11300
C659        C  0.14232975  0.93428261  0.82313429     0.02800
C660        C  0.16160944  0.98328541  0.82178798     0.00500
C661        C  0.17719433  0.55411893  0.83125637    -0.11300
C662        C  0.14197512  0.56024205  0.84775536     0.02700
H663        H  0.09301071  0.88550656  0.84032893     0.15600
H664        H  0.20412904  0.58348099  0.82833834     0.15600
C665        C  0.14004956  0.60718293  0.85964045     0.37300
C666        C  0.15693372  0.89515568  0.80797096     0.37200
N667        N  0.13885505  0.64493504  0.86908785    -0.43100
N668        N  0.16894395  0.86376499  0.79585928    -0.43000
C669        C  0.36000720  0.49666893  0.19963827     0.00500
C670        C  0.39228807  0.53705015  0.19545023    -0.11300
C671        C  0.44244351  0.53783553  0.20384715     0.02800
C672        C  0.46076969  0.49978720  0.21854340     0.00500
C673        C  0.41336804  0.96390986  0.21994327    -0.11300
C674        C  0.36343878  0.96527427  0.21158056     0.02700
H675        H  0.37835408  0.56825784  0.18542295     0.15600
H676        H  0.42635139  0.92850651  0.22731302     0.15600
C677        C  0.33351059  0.92097688  0.21443207     0.37300
C678        C  0.47337937  0.57940815  0.19763568     0.37200
N679        N  0.30963159  0.88540366  0.21668081    -0.43100
N680        N  0.49793893  0.61284586  0.19255496    -0.43000
C681        C  0.05896587  0.50463681  0.22045341     0.00500
C682        C  0.09342046  0.54497896  0.22216398    -0.11300
C683        C  0.14331497  0.54242209  0.21333637     0.02800
C684        C  0.16048777  0.50057418  0.20084935     0.00500
C685        C  0.11051101  0.96050676  0.19671300    -0.11300
C686        C  0.06047145  0.96307904  0.20551322     0.02700
H687        H  0.08216037  0.57985205  0.23026380     0.15600
H688        H  0.12208448  0.92820909  0.18686314     0.15600
C689        C  0.02709121  0.92328512  0.19979585     0.37300
C690        C  0.17569729  0.58447790  0.21680266     0.37200
N691        N  0.00069462  0.89133010  0.19488815    -0.43100
N692        N  0.20171103  0.61814643  0.21962192    -0.43000
C693        C  0.34170753  0.02790695  0.93672492     0.00500
C694        C  0.37324357  0.98709809  0.92899068    -0.11300
C695        C  0.40502434  0.99319924  0.91147654     0.02800
C696        C  0.40570289  0.04083970  0.90105315     0.00500
C697        C  0.40113279  0.49171141  0.90356089    -0.11300
C698        C  0.37078269  0.50193819  0.92150979     0.02700
H699        H  0.37442029  0.95043375  0.93700821     0.15600
H700        H  0.41331622  0.52316984  0.89388811     0.15600
C701        C  0.35372002  0.55434375  0.92531126     0.37300
C702        C  0.43935675  0.95088145  0.90530447     0.37200
N703        N  0.34016117  0.59639641  0.92832608    -0.43100
N704        N  0.46688494  0.91712820  0.90027750    -0.43000
C705        C  0.15242449  0.97206964  0.93908838     0.00500
C706        C  0.14317544  0.56179092  0.93312926    -0.11300
C707        C  0.11145961  0.57175554  0.91577524     0.02800
C708        C  0.08528068  0.96155459  0.90464464     0.00500
C709        C  0.12749305  0.92712813  0.90719866    -0.11300
C710        C  0.16116641  0.93205562  0.92424910     0.02700
H711        H  0.14596429  0.59068191  0.94524588     0.15600
H712        H  0.13301667  0.89534451  0.89636130     0.15600
C713        C  0.20439901  0.89591014  0.92589822     0.37300
C714        C  0.08273230  0.62023480  0.91479085     0.37200
N715        N  0.23910052  0.86693202  0.92712369    -0.43100
N716        N  0.05951112  0.65893820  0.91404376    -0.43000
C717        C  0.42010445  0.47001233  0.11851484     0.00500
C718        C  0.40353946  0.98393134  0.13035694    -0.11300
C719        C  0.36848831  0.97651960  0.14660955     0.02800
C720        C  0.35164444  0.48023719  0.15289205     0.00500
C721        C  0.37072566  0.52358670  0.14327597    -0.11300
C722        C  0.40548258  0.51881484  0.12650713     0.02700
H723        H  0.43155666  0.95350559  0.12643774     0.15600
H724        H  0.35757725  0.56128114  0.14860006     0.15600
C725        C  0.42708834  0.56437319  0.11816871     0.37300
C726        C  0.36743949  0.92692172  0.15654583     0.37200
N727        N  0.44466071  0.60077182  0.11152917    -0.43100
N728        N  0.36653860  0.88704602  0.16439964    -0.43000
C729        C  0.16960252  0.50452212  0.15355658     0.00500
C730        C  0.15618782  0.93428907  0.14377267    -0.11300
C731        C  0.12305458  0.92493894  0.12715724     0.02800
C732        C  0.10408322  0.52176375  0.11902433     0.00500
C733        C  0.12406841  0.56306835  0.12959932    -0.11300
C734        C  0.15661453  0.55480015  0.14683274     0.02700
H735        H  0.18259733  0.90396915  0.14929939     0.15600
H736        H  0.11261473  0.60177555  0.12487566     0.15600
C737        C  0.17746262  0.59823278  0.15706156     0.37300
C738        C  0.12226809  0.87404211  0.11857950     0.37200
N739        N  0.19430067  0.63292391  0.16528526    -0.43100
N740        N  0.12156902  0.83328029  0.11167232    -0.43000
C741        C  0.40329032  0.04146121  0.07092330     0.00500
C742        C  0.38987166  0.49905955  0.06703489    -0.11300
C743        C  0.35735386  0.50480661  0.04960123     0.02800
C744        C  0.35510120  0.46493044  0.03462414     0.00500
C745        C  0.35788699  0.98660115  0.04742900    -0.11300
C746        C  0.38782350  0.99261124  0.06541274     0.02700
H747        H  0.39456452  0.53119304  0.07744679     0.15600
H748        H  0.34710154  0.94858669  0.04320107     0.15600
C749        C  0.40567026  0.94749873  0.07689596     0.37300
C750        C  0.32676141  0.55199060  0.04751977     0.37200
N751        N  0.41990588  0.91113185  0.08596727    -0.43100
N752        N  0.30199766  0.58962903  0.04591414    -0.43000
C753        C  0.15755519  0.97062229  0.03575945     0.00500
C754        C  0.15294157  0.56327358  0.04001243    -0.11300
C755        C  0.12259051  0.57267930  0.05801599     0.02800
C756        C  0.09318433  0.95730717  0.07119296     0.00500
C757        C  0.11847324  0.91504339  0.06161655    -0.11300
C758        C  0.15107761  0.92117855  0.04424388     0.02700
H759        H  0.16367763  0.59524769  0.03032968     0.15600
H760        H  0.11060189  0.87694150  0.06705723     0.15600
C761        C  0.17582789  0.87578001  0.03525622     0.37300
C762        C  0.10574529  0.62459221  0.06292954     0.37200
N763        N  0.19580250  0.83922890  0.02823291    -0.43100
N764        N  0.09222643  0.66615312  0.06693608    -0.43000
C765        C  0.54191625  0.03986813  0.10613579     0.03000
C766        C  0.55932672  0.45984393  0.08260958     0.02900
C767        C  0.01381912  0.54184413  0.07263297    -0.17600
C768        C  0.96715183  0.53760853  0.08312923     0.03000
C769        C  0.95370232  0.95112567  0.10601762     0.02900
C770        C  0.49578847  0.03933536  0.11710732    -0.17600
H771        H  0.99861641  0.95638572  0.13411334     0.05000
H772        H  0.51310504  0.44993629  0.05512137     0.05000
O773        O  0.73215293  0.43882545  0.96376478    -0.71100
O774        O  0.82709661  0.46599101  0.00681814    -0.71300
O775        O  0.73073556  0.44015627  0.00677215    -0.71200
O776        O  0.82825219  0.46508001  0.96380084    -0.71200
O777        O  0.80559166  0.02710292  0.96395100    -0.71100
O778        O  0.70988710  0.05073521  0.00857469    -0.71200
O779        O  0.80858563  0.02413950  0.00695601    -0.71100
O780        O  0.70713882  0.05398381  0.96565621    -0.71300
V781        V  0.77917349  0.45406532  0.98528615     1.35200
V782        V  0.75753511  0.03740647  0.98628868     1.35200
C783        C  0.68446362  0.01841459  0.95686097     0.78200
C784        C  0.81400714  0.98029825  0.01525195     0.78200
C785        C  0.70395400  0.47674936  0.01477400     0.78100
C786        C  0.82951835  0.50851158  0.95504921     0.78000
C787        C  0.69921252  0.00092524  0.18777192     0.03000
C788        C  0.70209154  0.99920991  0.16549711     0.02900
C789        C  0.74864118  0.99127226  0.15531627    -0.17600
C790        C  0.79430618  0.98799326  0.16632952     0.03000
C791        C  0.79494319  0.99421220  0.18851663     0.02900
C792        C  0.74649215  0.99929377  0.19924820    -0.17600
H793        H  0.74560022  0.00218223  0.21632183     0.05000
H794        H  0.74944935  0.98870801  0.13815926     0.05000
C795        C  0.56428066  0.44131221  0.86675117     0.03000
C796        C  0.56066977  0.43926568  0.88907568     0.02900
C797        C  0.01275448  0.53720522  0.89690226    -0.17600
C798        C  0.96726567  0.53304622  0.88579435     0.03000
C799        C  0.96839286  0.53288489  0.86346835     0.02900
C800        C  0.01553730  0.53281200  0.85316607    -0.17600
H801        H  0.01688899  0.52977184  0.83604078     0.05000
H802        H  0.01154364  0.53750626  0.91407402     0.05000
C803        C  0.71801943  0.48259234  0.80533045     0.03000
C804        C  0.71526254  0.48929999  0.78296862     0.02900
C805        C  0.76387089  0.48901149  0.77194486    -0.17600
C806        C  0.81264705  0.48562868  0.78255117     0.03000
C807        C  0.81098876  0.48607042  0.80496014     0.02900
C808        C  0.76470461  0.48365372  0.81553093    -0.17600
H809        H  0.76489768  0.48315904  0.83271178     0.05000
H810        H  0.76397874  0.49195276  0.75495541     0.05000
C811        C  0.50531339  0.20430400  0.68661670     0.03000
C812        C  0.49916087  0.20737199  0.66427465     0.02900
C813        C  0.49555110  0.25441152  0.65410551    -0.17600
C814        C  0.49931749  0.30020755  0.66457110     0.03000
C815        C  0.50248162  0.30113080  0.68689513     0.02900
C816        C  0.50627756  0.25246049  0.69757661    -0.17600
H817        H  0.51018014  0.25226045  0.71457371     0.05000
H818        H  0.49113800  0.25535236  0.63700677     0.05000
C819        C  0.46803038  0.05081892  0.58137162     0.03000
C820        C  0.47071542  0.05122424  0.60363588     0.02900
C821        C  0.47586489  0.00507521  0.61462903    -0.17600
C822        C  0.51956855  0.45855003  0.60325208     0.03000
C823        C  0.51692731  0.46008225  0.58099219     0.02900
C824        C  0.46836972  0.00403265  0.57092736    -0.17600
H825        H  0.46665206  0.00363743  0.55376828     0.05000
H826        H  0.47901617  0.00554980  0.63175474     0.05000
O827        O  0.53882961  0.29802405  0.50483304    -0.71100
O828        O  0.53114954  0.20087452  0.46080001    -0.71300
O829        O  0.54178887  0.30018641  0.46186454    -0.71200
O830        O  0.52825678  0.19844575  0.50381518    -0.71200
O831        O  0.93080082  0.20513069  0.50587435    -0.71100
O832        O  0.94752118  0.30329237  0.46227630    -0.71200
O833        O  0.93441658  0.20432871  0.46277750    -0.71100
O834        O  0.94333899  0.30453118  0.50517812    -0.71300
V835        V  0.53339464  0.24956401  0.48283613     1.35200
V836        V  0.94056597  0.25401779  0.48407923     1.35200
C837        C  0.49869573  0.31988115  0.51241632     0.78200
C838        C  0.48894981  0.19271640  0.45214201     0.78200
C839        C  0.50279994  0.32131389  0.45322049     0.78100
C840        C  0.48527444  0.19007619  0.51189636     0.78000
C841        C  0.49836879  0.00567903  0.73580316    -0.01800
C842        C  0.48438481  0.05384309  0.36071648     0.03000
C843        C  0.47858242  0.05478972  0.38284800     0.02900
C844        C  0.51044182  0.50664091  0.39409543    -0.17600
C845        C  0.51175318  0.45987106  0.38360517     0.03000
C846        C  0.51247957  0.45928272  0.36137829     0.02900
C847        C  0.50963303  0.50513372  0.35023938    -0.17600
H848        H  0.50947328  0.50444155  0.33305615     0.05000
H849        H  0.51050174  0.50718079  0.41126865     0.05000
C850        C  0.50659304  0.20914359  0.27721363     0.03000
C851        C  0.50886727  0.20968235  0.29950925     0.02900
C852        C  0.51112520  0.25512189  0.31038157    -0.17600
C853        C  0.51085844  0.30166473  0.30008598     0.03000
C854        C  0.51017264  0.30445524  0.27778935     0.02900
C855        C  0.50799066  0.25732595  0.26636032    -0.17600
H856        H  0.50701099  0.25817693  0.24924837     0.05000
H857        H  0.51162880  0.25436123  0.32758154     0.05000
C858        C  0.49682253  0.00840629  0.23261750    -0.01800
C859        C  0.51614050  0.45731333  0.24848045     0.00500
C860        C  0.55779405  0.42037051  0.24710951    -0.11300
C861        C  0.55531485  0.37044157  0.25543281     0.02800
C862        C  0.51235908  0.35631169  0.26713914     0.00500
C863        C  0.96383707  0.39085152  0.27152353    -0.11300
C864        C  0.96868216  0.44070966  0.26334298     0.02700
H865        H  0.59281883  0.42927140  0.23922104     0.15600
H866        H  0.93037158  0.38309921  0.28087374     0.15600
C867        C  0.92861857  0.47836035  0.26868973     0.37300
C868        C  0.59791679  0.33434577  0.25188397     0.37200
N869        N  0.89613509  0.50788217  0.27327361    -0.43100
N870        N  0.63194332  0.30531522  0.24892858    -0.43000
C871        C  0.50254880  0.15827887  0.26607073     0.00500
C872        C  0.53939888  0.11834593  0.26991063    -0.11300
C873        C  0.53507502  0.06878448  0.26156252     0.02800
C874        C  0.49443838  0.05781970  0.24749277     0.00500
C875        C  0.94702291  0.08614240  0.24783455    -0.11300
C876        C  0.94756419  0.13615007  0.25622456     0.02700
H877        H  0.57217718  0.12595458  0.27959193     0.15600
H878        H  0.91247955  0.07627807  0.23998152     0.15600
C879        C  0.90333193  0.17043294  0.25316914     0.37300
C880        C  0.57542496  0.03125092  0.26665518     0.37200
N881        N  0.86783472  0.19790254  0.25074784    -0.43100
N882        N  0.60821375  0.00181071  0.27092218    -0.43000
C883        C  0.51032999  0.34587344  0.31424365     0.00500
C884        C  0.55716293  0.36428621  0.32045958    -0.11300
C885        C  0.55937353  0.39785672  0.33748484     0.02800
C886        C  0.51420018  0.41307628  0.34847187     0.00500
C887        C  0.96012856  0.39534977  0.34358061    -0.11300
C888        C  0.95230626  0.36314720  0.32649122     0.02700
H889        H  0.59202263  0.35133913  0.31235643     0.15600
H890        H  0.92749411  0.41394056  0.35150770     0.15600
C891        C  0.90059960  0.35225980  0.32089898     0.37300
C892        C  0.60801013  0.41736372  0.34315322     0.37200
N893        N  0.85918454  0.34367145  0.31633585    -0.43100
N894        N  0.64692170  0.43307571  0.34773710    -0.43000
C895        C  0.50453198  0.16464344  0.31311914     0.00500
C896        C  0.93100889  0.14181084  0.31837028    -0.11300
C897        C  0.92355514  0.10807622  0.33514876     0.02800
C898        C  0.48835609  0.09895027  0.34726945     0.00500
C899        C  0.53734525  0.11558305  0.34314549    -0.11300
C900        C  0.54573621  0.14815059  0.32614677     0.02700
H901        H  0.89913343  0.15398480  0.30835120     0.15600
H902        H  0.56938739  0.10125386  0.35263715     0.15600
C903        C  0.59684389  0.16427662  0.32221918     0.37300
C904        C  0.87410030  0.08686293  0.33779957     0.37200
N905        N  0.63775842  0.17709359  0.31892208    -0.43100
N906        N  0.83461806  0.06957261  0.33992601    -0.43000
C907        C  0.51059408  0.41408957  0.39703766     0.00500
C908        C  0.55583571  0.39787176  0.40728834    -0.11300
C909        C  0.55467015  0.36772545  0.42557763     0.02800
C910        C  0.50713857  0.35321320  0.43389251     0.00500
C911        C  0.95368022  0.36192923  0.42505865    -0.11300
C912        C  0.95720450  0.39208625  0.40687729     0.02700
H913        H  0.59189577  0.41183291  0.40179874     0.15600
H914        H  0.91611729  0.35460551  0.43129752     0.15600
C915        C  0.91081267  0.41441475  0.39773065     0.37300
C916        C  0.60272635  0.35473367  0.43585148     0.37200
N917        N  0.87358666  0.43231656  0.39044842    -0.43100
N918        N  0.64137916  0.34450612  0.44401319    -0.43000
C919        C  0.47873688  0.10131734  0.39588078     0.00500
C920        C  0.00886673  0.11005038  0.40404376    -0.11300
C921        C  0.01457773  0.13914789  0.42231624     0.02800
C922        C  0.48651435  0.16250045  0.43232349     0.00500
C923        C  0.43860987  0.14777872  0.42525304    -0.11300
C924        C  0.43449683  0.11759683  0.40720527     0.02700
H925        H  0.04258904  0.09520141  0.39562615     0.15600
H926        H  0.40429966  0.15844988  0.43418439     0.15600
C927        C  0.38483243  0.10120299  0.40117344     0.37300
C928        C  0.06565543  0.15212325  0.42798764     0.37200
N929        N  0.34512378  0.08803607  0.39623685    -0.43100
N930        N  0.10664494  0.16257767  0.43241680    -0.43000
C931        C  0.50103599  0.35256490  0.53151879     0.00500
C932        C  0.54681477  0.35200396  0.54320066    -0.11300
C933        C  0.55146897  0.38319626  0.56097484     0.02800
C934        C  0.50982409  0.41542407  0.56740809     0.00500
C935        C  0.94789992  0.40825852  0.55723643    -0.11300
C936        C  0.94396140  0.37678972  0.53967203     0.02700
H937        H  0.57956581  0.32802062  0.53819629     0.15600
H938        H  0.91600090  0.43439043  0.56140233     0.15600
C939        C  0.89605470  0.37966288  0.52838998     0.37300
C940        C  0.60019288  0.38418471  0.57149368     0.37200
N941        N  0.85755789  0.38224347  0.51944178    -0.43100
N942        N  0.63921612  0.38512533  0.57994927    -0.43000
C943        C  0.48120490  0.15792940  0.53124458     0.00500
C944        C  0.91618382  0.14699431  0.54318755    -0.11300
C945        C  0.90987361  0.11740678  0.56146027     0.02800
C946        C  0.47053675  0.09638218  0.56772494     0.00500
C947        C  0.51897486  0.10908491  0.56065596    -0.11300
C948        C  0.52480156  0.13991619  0.54283208     0.02700
H949        H  0.88289679  0.16659667  0.53621013     0.15600
H950        H  0.55271122  0.09209328  0.56832341     0.15600
C951        C  0.57628589  0.15127469  0.53683678     0.37300
C952        C  0.85904781  0.11153691  0.56972778     0.37200
N953        N  0.61764051  0.16033767  0.53217332    -0.43100
N954        N  0.81831210  0.10664542  0.57633906    -0.43000
C955        C  0.51618264  0.41232740  0.61626788     0.00500
C956        C  0.55745794  0.39905179  0.62968184    -0.11300
C957        C  0.55169295  0.36556828  0.64668793     0.02800
C958        C  0.50412123  0.34438170  0.65026950     0.00500
C959        C  0.94987924  0.34843983  0.63775988    -0.11300
C960        C  0.95387126  0.38255571  0.62100396     0.02700
H961        H  0.59363163  0.41672229  0.62735890     0.15600
H962        H  0.91404579  0.33031786  0.64038787     0.15600
C963        C  0.90846593  0.39651508  0.60901465     0.37300
C964        C  0.59528279  0.35239435  0.65986372     0.37200
N965        N  0.87165006  0.40751290  0.59965438    -0.43100
N966        N  0.63013336  0.34179513  0.67047259    -0.43000
C967        C  0.47277875  0.09734533  0.61663125     0.00500
C968        C  0.51810568  0.12312939  0.61643546    -0.11300
C969        C  0.52843396  0.15721011  0.63248098     0.02800
C970        C  0.49380451  0.16438310  0.64965807     0.00500
C971        C  0.93617593  0.13157102  0.65388910    -0.11300
C972        C  0.92319065  0.09837256  0.63774943     0.02700
H973        H  0.54668763  0.11481547  0.60434231     0.15600
H974        H  0.91077236  0.13775590  0.66732976     0.15600
C975        C  0.87672810  0.07135136  0.63987177     0.37300
C976        C  0.57521075  0.18416197  0.63113601     0.37200
N977        N  0.83959474  0.04953907  0.64149302    -0.43100
N978        N  0.61256127  0.20580368  0.63007390    -0.43000
C979        C  0.51585018  0.44808174  0.72094902     0.00500
C980        C  0.98434320  0.44235103  0.70334246    -0.11300
C981        C  0.97220797  0.39508209  0.69424699     0.02800
C982        C  0.50425775  0.35169486  0.69883885     0.00500
C983        C  0.53665887  0.35488573  0.71620862    -0.11300
C984        C  0.53895747  0.39979416  0.72822904     0.02700
H985        H  0.96771669  0.47697720  0.69650104     0.15600
H986        H  0.55880670  0.32098985  0.72124953     0.15600
C987        C  0.56308293  0.39198518  0.74857926     0.37300
C988        C  0.92600847  0.39593484  0.68193545     0.37200
N989        N  0.58220495  0.38448294  0.76484007    -0.43100
N990        N  0.88770562  0.39805265  0.67284390    -0.43000
C991        C  0.50668970  0.15307623  0.69878673     0.00500
C992        C  0.98622697  0.14524134  0.72162809    -0.11300
C993        C  0.98880371  0.09928349  0.73334805     0.02800
C994        C  0.49932820  0.05726594  0.72239822     0.00500
C995        C  0.52140992  0.05893396  0.70203177    -0.11300
C996        C  0.52951537  0.10572801  0.69138968     0.02700
H997        H  0.96979773  0.17930211  0.72917630     0.15600
H998        H  0.53582697  0.02383668  0.69482457     0.15600
C999        C  0.56891170  0.10382649  0.67541413     0.37300
C1000       C  0.97276974  0.10397655  0.75518543     0.37200
N1001       N  0.60219791  0.10031039  0.66332770    -0.43100
N1002       N  0.95876231  0.10913078  0.77247523    -0.43000
C1003       C  0.86395493  0.48519666  0.77041521     0.00500
C1004       C  0.85404249  0.02269520  0.75219001    -0.11300
C1005       C  0.90012719  0.02326801  0.74055920     0.02800
C1006       C  0.94689140  0.99802201  0.74827359     0.00500
C1007       C  0.95805098  0.46830754  0.76741904    -0.11300
C1008       C  0.91044271  0.45947005  0.77729876     0.02700
H1009       H  0.82179149  0.04699395  0.74697906     0.15600
H1010       H  0.99247515  0.45118061  0.77427476     0.15600
C1011       C  0.91044086  0.41754729  0.79208391     0.37300
C1012       C  0.89521363  0.04776414  0.72008353     0.37200
N1013       N  0.91219460  0.38243134  0.80323714    -0.43100
N1014       N  0.89018914  0.06707576  0.70367608    -0.43000
C1015       C  0.66386917  0.49522814  0.77095158     0.00500
C1016       C  0.66150778  0.47915203  0.74980548    -0.11300
C1017       C  0.61661153  0.48524639  0.73759906     0.02800
C1018       C  0.55098416  0.00770057  0.74838548     0.00500
C1019       C  0.55437535  0.03209787  0.76813746    -0.11300
C1020       C  0.60209938  0.04105796  0.77773824     0.02700
H1021       H  0.69525673  0.46191753  0.74227140     0.15600
H1022       H  0.52000084  0.04814355  0.77547575     0.15600
C1023       C  0.60205789  0.08506523  0.79128735     0.37300
C1024       C  0.62270454  0.47255573  0.71547667     0.37200
N1025       N  0.59996248  0.12192238  0.80133629    -0.43100
N1026       N  0.62913256  0.46141812  0.69792907    -0.43000
C1027       C  0.92388045  0.52474103  0.84994841     0.00500
C1028       C  0.90055115  0.47816553  0.85167722    -0.11300
C1029       C  0.86587659  0.46350434  0.83655596     0.02800
C1030       C  0.85461937  0.49552894  0.81890529     0.00500
C1031       C  0.87451118  0.01560623  0.82131176    -0.11300
C1032       C  0.91036735  0.01031579  0.83754656     0.02700
H1033       H  0.91093274  0.45204424  0.86437700     0.15600
H1034       H  0.87293417  0.04965099  0.81148826     0.15600
C1035       C  0.94549629  0.05042189  0.84048161     0.37300
C1036       C  0.84261217  0.41507556  0.83944898     0.37200
N1037       N  0.97376293  0.08239765  0.84286713    -0.43100
N1038       N  0.82392270  0.37638732  0.84177922    -0.43000
C1039       C  0.61125843  0.44850262  0.85433828     0.00500
C1040       C  0.62425314  0.41185805  0.83869962    -0.11300
C1041       C  0.65593644  0.42339096  0.82160228     0.02800
C1042       C  0.67555826  0.47220805  0.82003524     0.00500
C1043       C  0.66286695  0.06540106  0.83313632    -0.11300
C1044       C  0.62752310  0.07459818  0.84950212     0.02700
H1045       H  0.60726530  0.37499815  0.83929065     0.15600
H1046       H  0.69095270  0.09336245  0.82974203     0.15600
C1047       C  0.62717857  0.12260287  0.86060575     0.37300
C1048       C  0.66956500  0.38403865  0.80640269     0.37200
N1049       N  0.62696409  0.16116015  0.86945767    -0.43100
N1050       N  0.68083738  0.35238975  0.79430152    -0.43000
C1051       C  0.84587369  0.99449240  0.19993047     0.00500
C1052       C  0.87971862  0.03366553  0.19603492    -0.11300
C1053       C  0.92902164  0.03356394  0.20529710     0.02800
C1054       C  0.94543994  0.99519392  0.22024981     0.00500
C1055       C  0.92616356  0.45949905  0.21951433    -0.11300
C1056       C  0.87738372  0.46203411  0.21007052     0.02700
H1057       H  0.86755837  0.06480510  0.18561579     0.15600
H1058       H  0.93795924  0.42349589  0.22671722     0.15600
C1059       C  0.84710556  0.41757976  0.21117273     0.37300
C1060       C  0.96099513  0.07479109  0.19967297     0.37200
N1061       N  0.82289609  0.38191095  0.21194131    -0.43100
N1062       N  0.98625583  0.10809351  0.19509818    -0.43000
C1063       C  0.54563368  0.01093758  0.21730271     0.00500
C1064       C  0.57930909  0.05203750  0.21803483    -0.11300
C1065       C  0.62932798  0.04849428  0.20956280     0.02800
C1066       C  0.64694308  0.00485343  0.19833523     0.00500
C1067       C  0.62608304  0.46467722  0.19494521    -0.11300
C1068       C  0.57604523  0.46738885  0.20373648     0.02700
H1069       H  0.56755731  0.08782151  0.22536587     0.15600
H1070       H  0.63797985  0.43200175  0.18534483     0.15600
C1071       C  0.54348490  0.42634914  0.19875954     0.37300
C1072       C  0.66159804  0.09098471  0.21223585     0.37200
N1073       N  0.51809177  0.39300679  0.19457522    -0.43100
N1074       N  0.68753197  0.12498704  0.21442154    -0.43000
C1075       C  0.86052793  0.51546829  0.93555214     0.00500
C1076       C  0.88773780  0.47252352  0.92717079    -0.11300
C1077       C  0.91857119  0.47651270  0.90925347     0.02800
C1078       C  0.92197849  0.52400076  0.89893013     0.00500
C1079       C  0.88925264  0.00691969  0.90526430    -0.11300
C1080       C  0.85942536  0.01679950  0.92337995     0.02700
H1081       H  0.88642776  0.43576813  0.93501524     0.15600
H1082       H  0.90527606  0.03845501  0.89678024     0.15600
C1083       C  0.84885081  0.06956320  0.92910476     0.37300
C1084       C  0.94968824  0.43217421  0.90272226     0.37200
N1085       N  0.84064072  0.11191346  0.93365414    -0.43100
N1086       N  0.97462714  0.39678982  0.89740222    -0.43000
C1087       C  0.67019991  0.46565572  0.93767115     0.00500
C1088       C  0.62760865  0.07735845  0.93574918    -0.11300
C1089       C  0.59580456  0.08862312  0.91849100     0.02800
C1090       C  0.60194941  0.45202019  0.90385759     0.00500
C1091       C  0.64555201  0.41928816  0.90609278    -0.11300
C1092       C  0.67969018  0.42569099  0.92286417     0.02700
H1093       H  0.63132661  0.10578863  0.94798931     0.15600
H1094       H  0.65186117  0.38763728  0.89524235     0.15600
C1095       C  0.72419241  0.39106176  0.92430523     0.37300
C1096       C  0.56785188  0.13757264  0.91792032     0.37200
N1097       N  0.75988914  0.36331355  0.92542094    -0.43100
N1098       N  0.54509292  0.17656941  0.91756332    -0.43000
C1099       C  0.90751613  0.96108031  0.11887604     0.00500
C1100       C  0.91267233  0.47780263  0.12607122    -0.11300
C1101       C  0.87829461  0.47110063  0.14267422     0.02800
C1102       C  0.83980255  0.97753144  0.15306579     0.00500
C1103       C  0.86096897  0.01896320  0.14284984    -0.11300
C1104       C  0.89512693  0.01111448  0.12605889     0.02700
H1105       H  0.93471910  0.44509052  0.11978785     0.15600
H1106       H  0.84963994  0.05758278  0.14764357     0.15600
C1107       C  0.91847615  0.05483340  0.11691677     0.37300
C1108       C  0.86972797  0.42003145  0.15003041     0.37200
N1109       N  0.93725325  0.08989115  0.10964844    -0.43100
N1110       N  0.86267909  0.37911027  0.15588479    -0.43000
C1111       C  0.65834541  0.01035289  0.15147467     0.00500
C1112       C  0.67253508  0.44220444  0.13994843    -0.11300
C1113       C  0.63846776  0.43545417  0.12337658     0.02800
C1114       C  0.58794081  0.02846163  0.11871417     0.00500
C1115       C  0.61239183  0.06924658  0.12774716    -0.11300
C1116       C  0.64751337  0.06052611  0.14408200     0.02700
H1117       H  0.70012585  0.41155142  0.14406407     0.15600
H1118       H  0.60255187  0.10798546  0.12257512     0.15600
C1119       C  0.67277346  0.10331957  0.15281221     0.37300
C1120       C  0.63856970  0.38653038  0.11297067     0.37200
N1121       N  0.69321389  0.13749021  0.15980359    -0.43100
N1122       N  0.63872117  0.34733132  0.10461481    -0.43000
C1123       C  0.92275859  0.52880579  0.06971385     0.00500
C1124       C  0.89265953  0.00246584  0.06477337    -0.11300
C1125       C  0.86176618  0.01241389  0.04711981     0.02800
C1126       C  0.84619564  0.97152374  0.03441834     0.00500
C1127       C  0.88790840  0.47569528  0.04256230    -0.11300
C1128       C  0.91843943  0.48058719  0.06039065     0.02700
H1129       H  0.90717655  0.03415839  0.07345589     0.15600
H1130       H  0.88634167  0.43843628  0.03528540     0.15600
C1131       C  0.94771721  0.43620263  0.06812296     0.37300
C1132       C  0.84791693  0.06523393  0.04237446     0.37200
N1133       N  0.97130010  0.40083889  0.07438076    -0.43100
N1134       N  0.83711234  0.10764553  0.03862943    -0.43000
C1135       C  0.67133898  0.46958315  0.03370416     0.00500
C1136       C  0.63802509  0.07240942  0.04149573    -0.11300
C1137       C  0.60552858  0.08156239  0.05887003     0.02800
C1138       C  0.60550649  0.46175128  0.06905930     0.00500
C1139       C  0.61893225  0.41872061  0.05665712    -0.11300
C1140       C  0.65129310  0.42219950  0.03906423     0.02700
H1141       H  0.65036092  0.10459259  0.03231743     0.15600
H1142       H  0.60116181  0.38302087  0.05991604     0.15600
C1143       C  0.65977125  0.37760140  0.02593794     0.37300
C1144       C  0.58857753  0.13345669  0.06376448     0.37200
N1145       N  0.66629636  0.34192544  0.01535487    -0.43100
N1146       N  0.57489347  0.17500839  0.06770755    -0.43000
C1147       C  0.55867927  0.46676221  0.10473921     0.03000
C1148       C  0.54181165  0.04655458  0.08404366     0.02900
C1149       C  0.00180008  0.94312917  0.07330731    -0.17600
C1150       C  0.95455383  0.94606468  0.08380534     0.03000
C1151       C  0.96656595  0.53345830  0.10530265     0.02900
C1152       C  0.51233080  0.46702613  0.11567445    -0.17600
H1153       H  0.01174971  0.52856727  0.13346840     0.05000
H1154       H  0.49490452  0.05497676  0.05638702     0.05000
O1155       O  0.69131450  0.97362854  0.96418066    -0.71100
O1156       O  0.78953203  0.94470557  0.00729365    -0.71300
O1157       O  0.69063910  0.97138739  0.00728112    -0.71200
O1158       O  0.78977283  0.94681695  0.96406128    -0.71200
O1159       O  0.80196706  0.54472422  0.96282565    -0.71100
O1160       O  0.70715806  0.52067743  0.00673141    -0.71200
O1161       O  0.80337397  0.54632150  0.00588749    -0.71100
O1162       O  0.70575790  0.51859810  0.96385039    -0.71300
V1163       V  0.74064566  0.96062374  0.98573416     1.35200
V1164       V  0.75509126  0.53104477  0.98481797     1.35200
C1165       C  0.70400633  0.47448348  0.95590469     0.78200
C1166       C  0.82959564  0.51023993  0.01451500     0.78200
C1167       C  0.68537920  0.01449807  0.01614346     0.78100
C1168       C  0.81190437  0.98351235  0.95556453     0.78000
C1169       C  0.71298338  0.50103747  0.18732349     0.03000
C1170       C  0.71588216  0.49699683  0.16502388     0.02900
C1171       C  0.76203263  0.50172049  0.15457276    -0.17600
C1172       C  0.80724383  0.50791400  0.16530520     0.03000
C1173       C  0.80830299  0.50778088  0.18762708     0.02900
C1174       C  0.76022477  0.50523747  0.19853813    -0.17600
H1175       H  0.75961075  0.50629854  0.21565196     0.05000
H1176       H  0.76281535  0.50055102  0.13738362     0.05000
C1177       C  0.54505079  0.05088909  0.86661329     0.03000
C1178       C  0.54363487  0.05539907  0.88887078     0.02900
C1179       C  0.99577151  0.94360459  0.89892218    -0.17600
C1180       C  0.95111523  0.94887627  0.88696422     0.03000
C1181       C  0.95515260  0.95498550  0.86488236     0.02900
C1182       C  0.00340190  0.95172527  0.85541184    -0.17600
H1183       H  0.00619552  0.95439508  0.83830037     0.05000
H1184       H  0.99259194  0.94089757  0.91601834     0.05000
C1185       C  0.70351485  0.01137744  0.80517370     0.03000
C1186       C  0.70024262  0.01183043  0.78262455     0.02900
C1187       C  0.74840181  0.00395021  0.77141756    -0.17600
C1188       C  0.79674558  0.99298256  0.78179800     0.03000
C1189       C  0.79521203  0.98963092  0.80418550     0.02900
C1190       C  0.74989144  0.00020891  0.81507597    -0.17600
H1191       H  0.75075992  0.99942707  0.83228663     0.05000
H1192       H  0.74857471  0.00640581  0.75437426     0.05000
C1193       C  0.51196393  0.70551566  0.68902745     0.03000
C1194       C  0.50644665  0.70891567  0.66662868     0.02900
C1195       C  0.49501151  0.75546595  0.65684434    -0.17600
C1196       C  0.49148544  0.80146458  0.66748520     0.03000
C1197       C  0.49591309  0.80257627  0.68987177     0.02900
C1198       C  0.50621622  0.75370451  0.70025389    -0.17600
H1199       H  0.51000566  0.75337382  0.71723469     0.05000
H1200       H  0.49049192  0.75610459  0.63973485     0.05000
C1201       C  0.51699046  0.55297711  0.58193901     0.03000
C1202       C  0.51545331  0.55132497  0.60422427     0.02900
C1203       C  0.52020305  0.50412414  0.61444343    -0.17600
C1204       C  0.47843434  0.95838079  0.60418101     0.03000
C1205       C  0.47387855  0.95775921  0.58194626     0.02900
C1206       C  0.51800284  0.50721554  0.57067029    -0.17600
H1207       H  0.51731144  0.50842942  0.55350276     0.05000
H1208       H  0.52115396  0.50284960  0.63161399     0.05000
O1209       O  0.53214153  0.80887824  0.50389534    -0.71100
O1210       O  0.54450136  0.70987653  0.46008827    -0.71300
O1211       O  0.53188821  0.81024657  0.46070991    -0.71200
O1212       O  0.54541698  0.70851961  0.50324120    -0.71200
O1213       O  0.94936636  0.69764946  0.50635510    -0.71100
O1214       O  0.93714404  0.79465730  0.46155941    -0.71200
O1215       O  0.95327052  0.69437675  0.46327283    -0.71100
O1216       O  0.93283637  0.79762856  0.50463725    -0.71300
V1217       V  0.53695357  0.75925923  0.48198633     1.35200
V1218       V  0.94469464  0.74623448  0.48395911     1.35200
C1219       C  0.48874347  0.82141782  0.51173367     0.78200
C1220       C  0.50515705  0.69082763  0.45248916     0.78200
C1221       C  0.48922330  0.82061874  0.45205760     0.78100
C1222       C  0.50650133  0.69156925  0.51218583     0.78000
C1223       C  0.51586449  0.49982191  0.73424281    -0.01800
C1224       C  0.50597583  0.55181452  0.36068394     0.03000
C1225       C  0.50791241  0.55274736  0.38293993     0.02900
C1226       C  0.47459047  0.00866779  0.39373245    -0.17600
C1227       C  0.47710750  0.96184860  0.38313971     0.03000
C1228       C  0.48456789  0.96138242  0.36106103     0.02900
C1229       C  0.48705369  0.00736060  0.35016908    -0.17600
H1230       H  0.49162923  0.00695345  0.33307528     0.05000
H1231       H  0.47079647  0.00913881  0.41083824     0.05000
C1232       C  0.50211916  0.70961882  0.27694766     0.03000
C1233       C  0.49966731  0.71092781  0.29924162     0.02900
C1234       C  0.49277149  0.75678912  0.30988469    -0.17600
C1235       C  0.49122225  0.80329623  0.29947823     0.03000
C1236       C  0.49687345  0.80566069  0.27724607     0.02900
C1237       C  0.50114373  0.75789992  0.26599482    -0.17600
H1238       H  0.50389027  0.75830340  0.24890872     0.05000
H1239       H  0.48985237  0.75628794  0.32704960     0.05000
C1240       C  0.51052978  0.50555941  0.23292590    -0.01800
C1241       C  0.50187788  0.95871370  0.24748432     0.00500
C1242       C  0.54340082  0.92160825  0.24589508    -0.11300
C1243       C  0.54187043  0.87214984  0.25483431     0.02800
C1244       C  0.49889524  0.85766975  0.26648550     0.00500
C1245       C  0.96140057  0.88691945  0.27333927    -0.11300
C1246       C  0.96188088  0.93684896  0.26465543     0.02700
H1247       H  0.57825606  0.93054415  0.23788480     0.15600
H1248       H  0.92921631  0.87698872  0.28302979     0.15600
C1249       C  0.91974347  0.97212094  0.27002125     0.37300
C1250       C  0.58628383  0.83764615  0.25266306     0.37200
N1251       N  0.88574255  0.99997905  0.27448374    -0.43100
N1252       N  0.62205211  0.81013882  0.25105725    -0.43000
C1253       C  0.50368779  0.65806170  0.26581126     0.00500
C1254       C  0.54392368  0.62140038  0.26964811    -0.11300
C1255       C  0.54416360  0.57121952  0.26124765     0.02800
C1256       C  0.50507533  0.55642832  0.24710096     0.00500
C1257       C  0.96193480  0.58848866  0.24895912    -0.11300
C1258       C  0.96328384  0.63710600  0.25852292     0.02700
H1259       H  0.57543192  0.63189704  0.27951188     0.15600
H1260       H  0.92712663  0.58019642  0.24093037     0.15600
C1261       C  0.91871404  0.67161456  0.25697127     0.37300
C1262       C  0.58680907  0.53667411  0.26667256     0.37200
N1263       N  0.88285717  0.69915737  0.25592298    -0.43100
N1264       N  0.62127672  0.50939492  0.27107681    -0.43000
C1265       C  0.48787494  0.84776917  0.31362102     0.00500
C1266       C  0.53342907  0.86901704  0.31970084    -0.11300
C1267       C  0.53393463  0.90286272  0.33666514     0.02800
C1268       C  0.48834144  0.91533865  0.34793554     0.00500
C1269       C  0.93757795  0.88489592  0.34295966    -0.11300
C1270       C  0.94385382  0.85011630  0.32641464     0.02700
H1271       H  0.56876064  0.85815012  0.31148709     0.15600
H1272       H  0.89976160  0.89376419  0.34945350     0.15600
C1273       C  0.89992325  0.82412219  0.31915873     0.37300
C1274       C  0.58124569  0.92578274  0.34187372     0.37200
N1275       N  0.86480404  0.80342791  0.31318841    -0.43100
N1276       N  0.61899213  0.94448015  0.34600673    -0.43000
C1277       C  0.50372563  0.66582872  0.31306028     0.00500
C1278       C  0.97030075  0.63519347  0.32245804    -0.11300
C1279       C  0.96903912  0.60014917  0.33909311     0.02800
C1280       C  0.50123314  0.59712123  0.34707266     0.00500
C1281       C  0.54525709  0.62362443  0.34311890    -0.11300
C1282       C  0.54683635  0.65780511  0.32620967     0.02700
H1283       H  0.93583193  0.64480800  0.31354320     0.15600
H1284       H  0.57903505  0.61601143  0.35271428     0.15600
C1285       C  0.59285640  0.68477133  0.32266295     0.37300
C1286       C  0.92230459  0.57470088  0.34308069     0.37200
N1287       N  0.62964969  0.70644958  0.31976373    -0.43100
N1288       N  0.88498877  0.55405863  0.34621370    -0.43000
C1289       C  0.47613747  0.91569199  0.39648576     0.00500
C1290       C  0.52264342  0.88931098  0.40090328    -0.11300
C1291       C  0.52768287  0.85745152  0.41866864     0.02800
C1292       C  0.48543043  0.85198261  0.43248400     0.00500
C1293       C  0.92509011  0.86309575  0.42682719    -0.11300
C1294       C  0.92051775  0.89489502  0.40903219     0.02700
H1295       H  0.55593364  0.89621498  0.39123053     0.15600
H1296       H  0.89071432  0.85242882  0.43498918     0.15600
C1297       C  0.87025265  0.91322289  0.40228684     0.37300
C1298       C  0.57674301  0.83121984  0.42222062     0.37200
N1299       N  0.83009637  0.92803035  0.39678144    -0.43100
N1300       N  0.61609301  0.81017870  0.42495208    -0.43000
C1301       C  0.50626626  0.59935368  0.39587131     0.00500
C1302       C  0.05204662  0.60876874  0.40786106    -0.11300
C1303       C  0.04992880  0.64038635  0.42574607     0.02800
C1304       C  0.50728692  0.65954839  0.43287303     0.00500
C1305       C  0.46081570  0.64668865  0.42363234    -0.11300
C1306       C  0.46003621  0.61670436  0.40541562     0.02700
H1307       H  0.08878530  0.59764293  0.40083051     0.15600
H1308       H  0.42472151  0.65883581  0.43094876     0.15600
C1309       C  0.41152741  0.60077491  0.39772022     0.37300
C1310       C  0.09733874  0.65916908  0.43332109     0.37200
N1311       N  0.37269056  0.58783234  0.39161024    -0.43100
N1312       N  0.13545412  0.67414219  0.43932298    -0.43000
C1313       C  0.48377954  0.85258356  0.53133210     0.00500
C1314       C  0.52827089  0.86371003  0.54249763    -0.11300
C1315       C  0.52549084  0.89301314  0.56099976     0.02800
C1316       C  0.47763370  0.91159100  0.56871926     0.00500
C1317       C  0.91130001  0.89733971  0.55843411    -0.11300
C1318       C  0.91509707  0.86800159  0.54000613     0.02700
H1319       H  0.56550347  0.85054166  0.53654598     0.15600
H1320       H  0.87466557  0.91554595  0.56281935     0.15600
C1321       C  0.86890802  0.86181119  0.52810292     0.37300
C1322       C  0.57229463  0.90701496  0.57091512     0.37200
N1323       N  0.83175410  0.85704349  0.51863407    -0.43100
N1324       N  0.60966567  0.91845436  0.57890589    -0.43000
C1325       C  0.51107538  0.66053222  0.53192086     0.00500
C1326       C  0.95129256  0.64756375  0.54611372    -0.11300
C1327       C  0.95257677  0.61725178  0.56440445     0.02800
C1328       C  0.51537805  0.59997632  0.56904482     0.00500
C1329       C  0.56034740  0.61163168  0.55839282    -0.11300
C1330       C  0.55879579  0.64168078  0.54004975     0.02700
H1331       H  0.91477971  0.66375140  0.54063227     0.15600
H1332       H  0.59654464  0.59398289  0.56358383     0.15600
C1333       C  0.60674219  0.65011448  0.52955309     0.37300
C1334       C  0.90525493  0.60728234  0.57508676     0.37200
N1335       N  0.64529895  0.65682292  0.52124009    -0.43100
N1336       N  0.86747493  0.59932458  0.58376558    -0.43000
C1337       C  0.48411549  0.91291447  0.61789210     0.00500
C1338       C  0.52809319  0.90738520  0.63059611    -0.11300
C1339       C  0.52988758  0.87425619  0.64802985     0.02800
C1340       C  0.48721316  0.84589673  0.65294142     0.00500
C1341       C  0.93821936  0.84039280  0.64102837    -0.11300
C1342       C  0.93135282  0.87478066  0.62429624     0.02700
H1343       H  0.56038195  0.93052503  0.62729077     0.15600
H1344       H  0.90840945  0.81444500  0.64468605     0.15600
C1345       C  0.88261761  0.87848501  0.61368081     0.37300
C1346       C  0.57639815  0.86834359  0.66013177     0.37200
N1347       N  0.84344143  0.88167066  0.60526765    -0.43100
N1348       N  0.61364865  0.86322065  0.66984326    -0.43000
C1349       C  0.50834286  0.59628572  0.61799118     0.00500
C1350       C  0.54678336  0.63116180  0.61862113    -0.11300
C1351       C  0.54782989  0.66667233  0.63494748     0.02800
C1352       C  0.51057650  0.66655998  0.65134947     0.00500
C1353       C  0.96680295  0.62824087  0.65289212    -0.11300
C1354       C  0.96060071  0.59373598  0.63649972     0.02700
H1355       H  0.57719076  0.62919986  0.60690487     0.15600
H1356       H  0.93798924  0.63256171  0.66522611     0.15600
C1357       C  0.91605878  0.56339933  0.63680519     0.37300
C1358       C  0.58837369  0.70212431  0.63494484     0.37200
N1359       N  0.88044165  0.53903906  0.63707392    -0.43100
N1360       N  0.62069053  0.73061772  0.63497384    -0.43000
C1361       C  0.49822768  0.95207834  0.72369523     0.00500
C1362       C  0.96794013  0.93902470  0.70661243    -0.11300
C1363       C  0.96101497  0.89059533  0.69738667     0.02800
C1364       C  0.49269221  0.85355999  0.70211585     0.00500
C1365       C  0.52257371  0.85914977  0.72022093    -0.11300
C1366       C  0.52155793  0.90501057  0.73193065     0.02700
H1367       H  0.94335384  0.97096035  0.70157069     0.15600
H1368       H  0.54579885  0.82671260  0.72597833     0.15600
C1369       C  0.54359942  0.90019709  0.75276209     0.37300
C1370       C  0.91369029  0.88468020  0.68633681     0.37200
N1371       N  0.56125141  0.89526710  0.76942753    -0.43100
N1372       N  0.87460158  0.88069896  0.67820897    -0.43000
C1373       C  0.51904614  0.65331985  0.70078715     0.00500
C1374       C  0.99144426  0.64399997  0.72092722    -0.11300
C1375       C  0.99272425  0.59771835  0.73237170     0.02800
C1376       C  0.51689006  0.55368128  0.72231521     0.00500
C1377       C  0.53742795  0.55903828  0.70182723    -0.11300
C1378       C  0.54383188  0.60771825  0.69238894     0.02700
H1379       H  0.97020584  0.67682771  0.72749859     0.15600
H1380       H  0.55216406  0.52544220  0.69359485     0.15600
C1381       C  0.58446731  0.60949678  0.67701906     0.37300
C1382       C  0.97116711  0.60172324  0.75343299     0.37200
N1383       N  0.61864272  0.60898405  0.66534160    -0.43100
N1384       N  0.95344574  0.60590516  0.77018629    -0.43000
C1385       C  0.84779599  0.99000514  0.76948413     0.00500
C1386       C  0.86688090  0.51137872  0.75114003    -0.11300
C1387       C  0.91260022  0.51266930  0.73933083     0.02800
C1388       C  0.96132154  0.49500685  0.74811711     0.00500
C1389       C  0.93967194  0.96352622  0.76510898    -0.11300
C1390       C  0.89086511  0.95646126  0.77429759     0.02700
H1391       H  0.83278198  0.53066375  0.74476090     0.15600
H1392       H  0.97164601  0.93896576  0.77019617     0.15600
C1393       C  0.88515504  0.90929859  0.78561985     0.37300
C1394       C  0.90642437  0.53446269  0.71840268     0.37200
N1395       N  0.88189985  0.87023669  0.79396079    -0.43100
N1396       N  0.90014372  0.55238347  0.70179289    -0.43000
C1397       C  0.64859131  0.01547296  0.77060648     0.00500
C1398       C  0.64520372  0.99105040  0.75093709    -0.11300
C1399       C  0.59955626  0.99160045  0.73914287     0.02800
C1400       C  0.56788754  0.49919620  0.74717579     0.00500
C1401       C  0.57016862  0.51538647  0.76835186    -0.11300
C1402       C  0.61729187  0.51837397  0.77923094     0.02700
H1403       H  0.67885078  0.97172796  0.74414712     0.15600
H1404       H  0.53547756  0.52934044  0.77613753     0.15600
C1405       C  0.61679384  0.55424838  0.79640657     0.37300
C1406       C  0.60530563  0.97298485  0.71775005     0.37200
N1407       N  0.61414158  0.58518647  0.80942590    -0.43100
N1408       N  0.61141343  0.95754241  0.70075362    -0.43000
C1409       C  0.91144702  0.96660855  0.85080384     0.00500
C1410       C  0.87569173  0.92958693  0.84791358    -0.11300
C1411       C  0.83932213  0.93527488  0.83192403     0.02800
C1412       C  0.83919851  0.97818185  0.81820803     0.00500
C1413       C  0.87808274  0.54211813  0.81706552    -0.11300
C1414       C  0.91249345  0.55695953  0.83240131     0.02700
H1415       H  0.87710204  0.89560067  0.85776616     0.15600
H1416       H  0.86837960  0.56753587  0.80395236     0.15600
C1417       C  0.93625051  0.60507504  0.82964185     0.37300
C1418       C  0.80265303  0.89629873  0.82963008     0.37200
N1419       N  0.95552283  0.64344634  0.82729629    -0.43100
N1420       N  0.77333282  0.86512432  0.82766471    -0.43000
C1421       C  0.59146185  0.03818235  0.85398493     0.00500
C1422       C  0.59296466  0.99213700  0.84254190    -0.11300
C1423       C  0.62774631  0.98337716  0.82597157     0.02800
C1424       C  0.66144443  0.02128105  0.82048807     0.00500
C1425       C  0.66570586  0.50715973  0.83657392    -0.11300
C1426       C  0.63273603  0.49655244  0.85318598     0.02700
H1427       H  0.56540984  0.96376347  0.84610502     0.15600
H1428       H  0.68371575  0.54352974  0.83626602     0.15600
C1429       C  0.61924111  0.53722561  0.86776963     0.37300
C1430       C  0.62968231  0.93467458  0.81539455     0.37200
N1431       N  0.60927949  0.57100307  0.87902133    -0.43100
N1432       N  0.63188451  0.89536546  0.80710612    -0.43000
C1433       C  0.85949348  0.50601000  0.19900791     0.00500
C1434       C  0.89438262  0.54485309  0.19618120    -0.11300
C1435       C  0.94387690  0.54193151  0.20540213     0.02800
C1436       C  0.95910463  0.50121093  0.21946917     0.00500
C1437       C  0.91339228  0.95279861  0.22153556    -0.11300
C1438       C  0.86440161  0.95290889  0.21226568     0.02700
H1439       H  0.88302174  0.57784904  0.18663378     0.15600
H1440       H  0.92601275  0.91812440  0.22954753     0.15600
C1441       C  0.83432930  0.90874116  0.21510897     0.37300
C1442       C  0.97725810  0.58268485  0.20076741     0.37200
N1443       N  0.81021527  0.87333904  0.21737136    -0.43100
N1444       N  0.00368329  0.61560097  0.19697789    -0.43000
C1445       C  0.55980637  0.50779117  0.21777215     0.00500
C1446       C  0.59273168  0.54939245  0.21822707    -0.11300
C1447       C  0.64267311  0.54650090  0.20962679     0.02800
C1448       C  0.66100955  0.50305199  0.19832723     0.00500
C1449       C  0.61115210  0.96751224  0.19446167    -0.11300
C1450       C  0.56086564  0.97115797  0.20292334     0.02700
H1451       H  0.58040720  0.58518212  0.22539236     0.15600
H1452       H  0.62263719  0.93486623  0.18479339     0.15600
C1453       C  0.52682965  0.93183752  0.19731558     0.37300
C1454       C  0.67391274  0.58988646  0.21205610     0.37200
N1455       N  0.49989034  0.90017054  0.19261249    -0.43100
N1456       N  0.69896274  0.62465003  0.21399670    -0.43000
C1457       C  0.84234945  0.97566079  0.93575457     0.00500
C1458       C  0.85287325  0.92550639  0.92848974    -0.11300
C1459       C  0.88339752  0.91590583  0.91055879     0.02800
C1460       C  0.90330790  0.95679270  0.89924983     0.00500
C1461       C  0.89274751  0.56637389  0.90638492    -0.11300
C1462       C  0.86221888  0.56270198  0.92455375     0.02700
H1463       H  0.83904326  0.89341359  0.93729954     0.15600
H1464       H  0.89670861  0.60325744  0.89888607     0.15600
C1465       C  0.83518104  0.60869927  0.93185855     0.37300
C1466       C  0.89693685  0.86369360  0.90484085     0.37200
N1467       N  0.81374194  0.64579451  0.93762459    -0.43100
N1468       N  0.90793232  0.82190018  0.90021467    -0.43000
C1469       C  0.65262157  0.02906711  0.93791385     0.00500
C1470       C  0.62783888  0.49959769  0.93470551    -0.11300
C1471       C  0.59377113  0.49303978  0.91821528     0.02800
C1472       C  0.58894974  0.05134056  0.90279944     0.00500
C1473       C  0.61688487  0.00443381  0.90410599    -0.11300
C1474       C  0.64867970  0.99305986  0.92143772     0.02700
H1475       H  0.62037755  0.53081090  0.94568913     0.15600
H1476       H  0.61140853  0.97542099  0.89226467     0.15600
C1477       C  0.67694628  0.94432488  0.92179344     0.37300
C1478       C  0.54971264  0.52845425  0.91675450     0.37200
N1479       N  0.69974308  0.90534264  0.92202665    -0.43100
N1480       N  0.51441996  0.55672184  0.91563860    -0.43000
C1481       C  0.92055565  0.52675383  0.11805276     0.00500
C1482       C  0.88601933  0.91958516  0.12896842    -0.11300
C1483       C  0.85208719  0.92748380  0.14591998     0.02800
C1484       C  0.85196423  0.51398321  0.15161575     0.00500
C1485       C  0.85921678  0.56277958  0.14332937    -0.11300
C1486       C  0.89359657  0.56948149  0.12675216     0.02700
H1487       H  0.89714002  0.88100016  0.12405153     0.15600
H1488       H  0.83718989  0.59550751  0.14960681     0.15600
C1489       C  0.90189019  0.62052209  0.11930362     0.37300
C1490       C  0.82909539  0.88398057  0.15541081     0.37200
N1491       N  0.90867989  0.66137573  0.11330308    -0.43100
N1492       N  0.81044142  0.84921062  0.16298164    -0.43000
C1493       C  0.67233923  0.48862602  0.15103558     0.00500
C1494       C  0.63489044  0.96947051  0.14204103    -0.11300
C1495       C  0.59898142  0.97825510  0.12606738     0.02800
C1496       C  0.60373068  0.47574528  0.11769925     0.00500
C1497       C  0.60387205  0.52222033  0.12869323    -0.11300
C1498       C  0.63800857  0.52907345  0.14515552     0.02700
H1499       H  0.64483123  0.93070473  0.14713596     0.15600
H1500       H  0.57588452  0.55269733  0.12480000     0.15600
C1501       C  0.63767470  0.57813708  0.15542092     0.37300
C1502       C  0.57216744  0.93560193  0.11807541     0.37200
N1503       N  0.63698260  0.61765854  0.16352212    -0.43100
N1504       N  0.55029810  0.90162854  0.11173860    -0.43000
C1505       C  0.90889584  0.95254805  0.07025229     0.00500
C1506       C  0.89367894  0.57086826  0.06188068    -0.11300
C1507       C  0.86211474  0.56595039  0.04423286     0.02800
C1508       C  0.86067592  0.51823523  0.03375789     0.00500
C1509       C  0.86014709  0.92119862  0.04073598    -0.11300
C1510       C  0.89169978  0.91156490  0.05832843     0.02700
H1511       H  0.89757040  0.60809861  0.06894277     0.15600
H1512       H  0.84793831  0.88928760  0.03150561     0.15600
C1513       C  0.90831623  0.85955386  0.06325524     0.37300
C1514       C  0.83241647  0.61072777  0.03728436     0.37200
N1515       N  0.92180319  0.81791991  0.06722674    -0.43100
N1516       N  0.80843262  0.64669860  0.03190090    -0.43000
C1517       C  0.65275636  0.02227755  0.03529358     0.00500
C1518       C  0.66009509  0.51189959  0.04685150    -0.11300
C1519       C  0.62720948  0.50850929  0.06425586     0.02800
C1520       C  0.58789880  0.04025535  0.07062991     0.00500
C1521       C  0.60499370  0.99046802  0.06536884    -0.11300
C1522       C  0.63709819  0.98103239  0.04793057     0.02700
H1523       H  0.67583416  0.54837347  0.04315948     0.15600
H1524       H  0.59050395  0.95856202  0.07409783     0.15600
C1525       C  0.65236422  0.92850490  0.04337695     0.37300
C1526       C  0.61301132  0.55461789  0.07571500     0.37200
N1527       N  0.66434867  0.88629248  0.03984033    -0.43100
N1528       N  0.60178840  0.59193449  0.08468777    -0.43000
loop_ 
_geom_bond_atom_site_label_1 
_geom_bond_atom_site_label_2 
_geom_bond_distance 
_geom_bond_site_symmetry_2 
_ccdc_geom_bond_type 
C1            C6   1.391   1_455  A
C1          C384   1.408       .  A
C1          C350   1.467       .  S
C2          C383   1.410       .  A
C2          C767   1.398       .  A
C2          C374   1.476       .  S
C3            C4   1.402       .  A
C3          C766   1.399       .  A
C3          H772   1.086       .  S
C4          C387   1.411       .  A
C4          C359   1.478       .  S
C5          C386   1.411       .  A
C5          C770   1.393       .  A
C5          C335   1.470       .  S
C6          C769   1.392       .  A
C6          H771   1.087       .  S
H7          C770   1.087       .  S
H8          C767   1.086       .  S
O9           V17   1.900       .  S
O9          C401   1.265       .  A
O10          V17   1.902   1_554  S
O10         C402   1.265       .  A
O11          V17   1.898   1_554  S
O11          C21   1.265       .  A
O12          V17   1.899       .  S
O12          C22   1.265       .  A
O13          V18   1.901       .  S
O13         C404   1.264       .  A
O14          V18   1.898   1_554  S
O14         C403   1.266   1_545  A
O15          V18   1.895   1_554  S
O15          C20   1.263       .  A
O16          V18   1.890       .  S
O16          C19   1.265   1_545  A
V17         V400   2.085       .  T
V18         V399   2.083   1_545  T
C19         C705   1.484       .  S
C19         O391   1.264       .  A
C20         C362   1.485       .  S
C20         O392   1.266   1_545  A
C21         C371   1.487       .  S
C21         O396   1.264       .  A
C22         C311   1.490       .  S
C22         O395   1.265       .  A
C23          C24   1.416       .  A
C23          C28   1.440   1_565  A
C23         C302   1.527       .  S
C24          C25   1.385   1_565  A
C24         C347   1.470       .  S
C25          C26   1.384       .  A
C25          H30   1.088   1_545  S
C26          C27   1.414       .  A
C26         C338   1.470       .  S
C27          C28   1.439       .  A
C27         C287   1.525       .  S
C28          H29   1.083       .  S
C31          C32   1.410       .  A
C31         C800   1.395       .  A
C31         C275   1.468       .  S
C32         C797   1.396       .  A
C32         C326   1.478       .  S
C33          C34   1.399       .  A
C33         C796   1.400       .  A
C33          H38   1.086       .  S
C34          C35   1.413       .  A
C34         C314   1.479       .  S
C35          C36   1.395       .  A
C35         C263   1.480       .  S
C36         C795   1.397       .  A
C36          H37   1.086       .  S
C39          C40   1.423       .  A
C39          C44   1.386       .  A
C39         C278   1.469       .  S
C40          C41   1.444       .  A
C40         C251   1.550       .  S
C41          C42   1.446       .  A
C41          H46   1.081       .  S
C42          C43   1.423       .  A
C42         C239   1.536       .  S
C43          C44   1.383       .  A
C43         C266   1.482       .  S
C44          H45   1.089       .  S
C47          C48   1.423       .  A
C47          C52   1.447   1_655  A
C47         C227   1.544   1_655  S
C48          C49   1.384       .  A
C48         C206   1.478       .  S
C49          C50   1.383       .  A
C49          H54   1.088       .  S
C50          C51   1.420       .  A
C50         C194   1.477       .  S
C51          C52   1.447   1_655  A
C51         C218   1.546       .  S
C52          H53   1.078       .  S
C55          C56   1.412       .  A
C55          C60   1.397       .  A
C55         C182   1.474       .  S
C56          C57   1.393   1_545  A
C56         C203   1.473       .  S
C57         C440   1.393       .  A
C57          H62   1.087       .  S
C58          C59   1.408   1_455  A
C58         C439   1.391       .  A
C58         C191   1.466       .  S
C59         C442   1.396       .  A
C59         C170   1.472       .  S
C60         C441   1.398   1_545  A
C60          H61   1.086       .  S
O63          V71   1.901       .  S
O63          C73   1.265   1_455  A
O64          V71   1.899       .  S
O64          C74   1.265   1_455  A
O65          V71   1.891       .  S
O65          C75   1.262   1_455  A
O66          V71   1.890       .  S
O66          C76   1.263   1_455  A
O67          V72   1.902       .  S
O67         C840   1.265       .  A
O68          V72   1.896       .  S
O68         C839   1.265       .  A
O69          V72   1.898       .  S
O69         C838   1.265       .  A
O70          V72   1.895       .  S
O70         C837   1.264       .  A
V71         V836   2.083   1_455  T
V72         V835   2.083       .  T
C73         C167   1.485       .  S
C73         O834   1.262       .  A
C74         C158   1.487       .  S
C74         O833   1.263       .  A
C75         C146   1.488       .  S
C75         O832   1.266       .  A
C76         C179   1.490       .  S
C76         O831   1.266       .  A
C77         C230   1.592   1_565  S
C77         C254   1.595   1_565  S
C77         C597   1.599       .  S
C77        C1006   1.603   1_455  S
C78          C79   1.408       .  A
C78         C465   1.391       .  A
C78         C134   1.466       .  S
C79         C462   1.398       .  A
C79         C155   1.471       .  S
C80          C81   1.397       .  A
C80         C461   1.396       .  A
C80          H85   1.086       .  S
C81          C82   1.409       .  A
C81         C143   1.471       .  S
C82          C83   1.393       .  A
C82         C122   1.469       .  S
C83         C460   1.395       .  A
C83          H84   1.087       .  S
C86          C87   1.412       .  A
C86          C91   1.442       .  A
C86         C107   1.526       .  S
C87          C88   1.385       .  A
C87         C131   1.471       .  S
C88          C89   1.384       .  A
C88          H93   1.088       .  S
C89          C90   1.415       .  A
C89         C119   1.474       .  S
C90          C91   1.443       .  A
C90          C98   1.528   1_655  S
C91          H92   1.082       .  S
C94         C110   1.610   1_565  S
C94         C299   1.607   1_665  S
C94         C477   1.606   1_655  S
C94        C1054   1.609       .  S
C95          C96   1.426       .  A
C95         C864   1.431   1_455  A
C95         C476   1.607       .  S
C96          C97   1.420       .  A
C96         H101   1.078       .  S
C97          C98   1.411       .  A
C97         C104   1.442       .  S
C98         C863   1.410   1_455  A
C99         C100   1.415       .  A
C99         C862   1.409       .  A
C99         H102   1.083       .  S
C100        C859   1.430       .  A
C100        C103   1.443       .  S
C103        N105   1.157       .  T
C104        N106   1.157       .  T
C107        C108   1.411   1_655  A
C107        C876   1.409       .  A
C108        C109   1.421       .  A
C108        H113   1.084       .  S
C109        C110   1.432   1_455  A
C109        C116   1.443       .  S
C110        C875   1.426       .  A
C111        C112   1.416       .  A
C111        C874   1.425       .  A
C111        H114   1.077       .  S
C112        C871   1.409       .  A
C112        C115   1.443       .  S
C115        N117   1.157       .  T
C116        N118   1.157       .  T
C119        C120   1.402   1_655  A
C119        C888   1.411       .  A
C120        C121   1.398       .  A
C120        H125   1.085       .  S
C121        C122   1.409       .  A
C121        C128   1.443       .  S
C122        C887   1.401   1_455  A
C123        C124   1.392       .  A
C123        C886   1.398       .  A
C123        H126   1.083       .  S
C124        C883   1.411       .  A
C124        C127   1.445       .  S
C127        N129   1.157       .  T
C128        N130   1.157       .  T
C131        C136   1.411   1_655  A
C131        C896   1.400       .  A
C132        C133   1.395       .  A
C132        C895   1.399       .  A
C132        H137   1.085       .  S
C133        C898   1.411       .  A
C133        C140   1.444       .  S
C134        C135   1.399   1_655  A
C134        C897   1.412       .  A
C135        C136   1.395       .  A
C135        H138   1.085       .  S
C136        C139   1.444       .  S
C139        N141   1.157       .  T
C140        N142   1.157       .  T
C143        C144   1.399       .  A
C143        C912   1.408   1_455  A
C144        C145   1.400       .  A
C144        H149   1.085       .  S
C145        C146   1.420   1_455  A
C145        C152   1.444       .  S
C146        C911   1.407       .  A
C147        C148   1.397       .  A
C147        C910   1.407       .  A
C147        H150   1.084       .  S
C148        C907   1.407       .  A
C148        C151   1.444       .  S
C151        N153   1.157       .  T
C152        N154   1.157       .  T
C155        C160   1.406       .  A
C155        C920   1.400   1_655  A
C156        C157   1.401       .  A
C156        C919   1.400       .  A
C156        H161   1.085       .  S
C157        C922   1.420       .  A
C157        C164   1.444       .  S
C158        C159   1.408       .  A
C158        C921   1.418   1_655  A
C159        C160   1.398       .  A
C159        H162   1.084       .  S
C160        C163   1.444       .  S
C163        N165   1.157       .  T
C164        N166   1.157       .  T
C167        C168   1.410   1_655  A
C167        C936   1.417       .  A
C168        C169   1.401       .  A
C168        H173   1.084       .  S
C169        C170   1.405   1_455  A
C169        C176   1.444       .  S
C170        C935   1.400       .  A
C171        C172   1.396       .  A
C171        C934   1.402       .  A
C171        H174   1.085       .  S
C172        C931   1.416       .  A
C172        C175   1.445       .  S
C175        N177   1.157       .  T
C176        N178   1.157       .  T
C179        C184   1.419   1_655  A
C179        C944   1.410       .  A
C180        C181   1.402       .  A
C180        C943   1.409       .  A
C180        H185   1.084       .  S
C181        C946   1.408       .  A
C181        C188   1.444       .  S
C182        C183   1.400   1_655  A
C182        C945   1.406       .  A
C183        C184   1.396       .  A
C183        H186   1.086       .  S
C184        C187   1.445       .  S
C187        N189   1.157       .  T
C188        N190   1.157       .  T
C191        C192   1.406       .  A
C191        C960   1.405   1_455  A
C192        C193   1.397       .  A
C192        H197   1.085       .  S
C193        C194   1.406   1_455  A
C193        C200   1.443       .  S
C194        C959   1.408       .  A
C195        C196   1.392       .  A
C195        C958   1.406       .  A
C195        H198   1.085       .  S
C196        C955   1.407       .  A
C196        C199   1.444       .  S
C199        N201   1.157       .  T
C200        N202   1.157       .  T
C203        C204   1.396       .  A
C203        C972   1.416       .  A
C204        C205   1.393   1_655  A
C204        H209   1.083   1_655  S
C205        C206   1.421   1_455  A
C205        C212   1.447       .  S
C206        C971   1.398       .  A
C207        C208   1.397       .  A
C207        C970   1.398       .  A
C207        H210   1.085       .  S
C208        C967   1.414       .  A
C208        C211   1.444       .  S
C211        N213   1.157       .  T
C212        N214   1.157       .  T
C215        C220   1.445       .  A
C215        C980   1.410   1_455  A
C215        C459   1.598       .  S
C216        C217   1.419       .  A
C216        C979   1.413       .  A
C216        H221   1.078       .  S
C217        C982   1.425       .  A
C217        C224   1.442       .  S
C218        C219   1.403   1_655  A
C218        C981   1.430       .  A
C219        C220   1.412       .  A
C219        H222   1.082       .  S
C220        C223   1.444       .  S
C223        N225   1.157       .  T
C224        N226   1.157       .  T
C227        C232   1.429       .  A
C227        C992   1.403   1_455  A
C228        C229   1.410       .  A
C228        C991   1.403       .  A
C228        H233   1.083       .  S
C229        C994   1.443       .  A
C229        C236   1.445       .  S
C230        C231   1.410       .  A
C230        C993   1.442   1_455  A
C231        C232   1.422       .  A
C231        H234   1.079       .  S
C232        C235   1.440       .  S
C235        N237   1.157       .  T
C236        N238   1.158       .  T
C239        C244   1.425       .  A
C239        C622   1.401       .  A
C240        C241   1.414       .  A
C240        C621   1.402       .  A
C240        H245   1.084       .  S
C241        C242   1.447       .  A
C241        C248   1.446       .  S
C242        C625   1.411   1_545  A
C242        C841   1.600       .  S
C243        C244   1.419       .  A
C243        C624   1.413       .  A
C243        H246   1.078       .  S
C244        C247   1.441       .  S
C247        N249   1.157       .  T
C248        N250   1.158       .  T
C251        C252   1.404       .  A
C251        C638   1.429       .  A
C252        C253   1.414       .  A
C252        H257   1.083       .  S
C253        C636   1.446       .  A
C253        C260   1.445       .  S
C254        C255   1.409       .  A
C254        C635   1.442   1_545  A
C255        C256   1.424       .  A
C255        H258   1.080       .  S
C256        C633   1.433       .  A
C256        C259   1.439       .  S
C259        N261   1.157       .  T
C260        N262   1.158       .  T
C263        C264   1.396       .  A
C263        C650   1.420       .  A
C264        C265   1.398       .  A
C264        H269   1.085       .  S
C265        C266   1.421       .  A
C265        C272   1.446       .  S
C266        C649   1.397       .  A
C267        C268   1.400       .  A
C267        C648   1.401       .  A
C267        H270   1.085       .  S
C268        C645   1.415       .  A
C268        C271   1.445       .  S
C271        N273   1.157       .  T
C272        N274   1.157       .  T
C275        C276   1.408       .  A
C275        C662   1.404       .  A
C276        C277   1.394       .  A
C276        H281   1.085       .  S
C277        C278   1.403       .  A
C277        C284   1.443       .  S
C278        C661   1.409       .  A
C279        C280   1.392       .  A
C279        C660   1.406   1_545  A
C279        H282   1.085       .  S
C280        C657   1.408   1_545  A
C280        C283   1.442       .  S
C283        N285   1.157       .  T
C284        N286   1.157       .  T
C287        C288   1.414       .  A
C287        C674   1.408   1_545  A
C288        C289   1.422       .  A
C288        H293   1.084       .  S
C289        C290   1.429       .  A
C289        C296   1.443       .  S
C290        C673   1.427   1_545  A
C290        C858   1.610       .  S
C291        C292   1.411       .  A
C291        C672   1.428       .  A
C291        H294   1.078       .  S
C292        C669   1.405       .  A
C292        C295   1.444       .  S
C295        N297   1.157       .  T
C296        N298   1.157       .  T
C299        C300   1.426       .  A
C299        C686   1.430   1_545  A
C300        C301   1.413       .  A
C300        H305   1.077       .  S
C301        C302   1.410   1_545  A
C301        C308   1.444       .  S
C302        C685   1.413       .  A
C303        C304   1.421       .  A
C303        C684   1.413       .  A
C303        H306   1.083       .  S
C304        C681   1.429       .  A
C304        C307   1.443       .  S
C307        N309   1.157       .  T
C308        N310   1.157       .  T
C311        C312   1.406       .  A
C311        C698   1.419       .  A
C312        C313   1.401       .  A
C312        H317   1.084       .  S
C313        C314   1.411       .  A
C313        C320   1.444       .  S
C314        C697   1.400       .  A
C315        C316   1.405       .  A
C315        C696   1.400       .  A
C315        H318   1.085       .  S
C316        C693   1.421       .  A
C316        C319   1.443       .  S
C319        N321   1.157       .  T
C320        N322   1.157       .  T
C323        C328   1.416       .  A
C323        C706   1.401       .  A
C323        C401   1.477       .  S
C324        C325   1.391       .  A
C324        C705   1.401   1_545  A
C324        H329   1.085       .  S
C325        C708   1.416   1_545  A
C325        C332   1.447       .  S
C326        C327   1.401       .  A
C326        C707   1.413       .  A
C327        C328   1.401       .  A
C327        H330   1.085       .  S
C328        C331   1.444       .  S
C331        N333   1.157       .  T
C332        N334   1.157       .  T
C335        C340   1.405       .  A
C335        C718   1.406   1_545  A
C336        C337   1.400       .  A
C336        C717   1.401       .  A
C336        H341   1.085       .  S
C337        C720   1.412       .  A
C337        C344   1.444       .  S
C338        C339   1.405       .  A
C338        C719   1.405   1_545  A
C339        C340   1.397       .  A
C339        H342   1.085       .  S
C340        C343   1.443       .  S
C343        N345   1.157       .  T
C344        N346   1.157       .  T
C347        C352   1.406   1_565  A
C347        C730   1.405       .  A
C348        C349   1.394       .  A
C348        C729   1.400       .  A
C348        H353   1.085       .  S
C349        C732   1.411       .  A
C349        C356   1.444       .  S
C350        C351   1.405   1_565  A
C350        C731   1.405       .  A
C351        C352   1.396       .  A
C351        H354   1.085       .  S
C352        C355   1.444       .  S
C355        N357   1.157       .  T
C356        N358   1.157       .  T
C359        C364   1.413       .  A
C359        C742   1.400       .  A
C360        C361   1.400       .  A
C360        C741   1.402       .  A
C360        H365   1.085       .  S
C361        C362   1.416       .  A
C361        C368   1.444       .  S
C362        C745   1.407   1_545  A
C363        C364   1.399       .  A
C363        C744   1.402       .  A
C363        H366   1.085       .  S
C364        C367   1.444       .  S
C367        N369   1.157       .  T
C368        N370   1.157       .  T
C371        C376   1.418       .  A
C371        C754   1.407       .  A
C372        C373   1.398       .  A
C372        C753   1.408   1_545  A
C372        H377   1.084       .  S
C373        C756   1.407   1_545  A
C373        C380   1.445       .  S
C374        C375   1.399       .  A
C374        C755   1.409       .  A
C375        C376   1.399       .  A
C375        H378   1.083       .  S
C376        C379   1.444       .  S
C379        N381   1.157       .  T
C380        N382   1.157       .  T
C383        C388   1.392       .  A
C383        C732   1.464       .  S
C384       C1149   1.400       .  A
C384        C756   1.475       .  S
C385       C1148   1.398       .  A
C385        C386   1.400       .  A
C385       H1154   1.086       .  S
C386        C741   1.476       .  S
C387       C1152   1.391       .  A
C387        C717   1.471       .  S
C388       C1151   1.390   1_455  A
C388       H1153   1.087       .  S
H389       C1152   1.087       .  S
H390       C1149   1.086       .  S
O391        V399   1.902       .  S
O392        V399   1.898   1_554  S
O393        V399   1.900   1_554  S
O393        C403   1.264       .  A
O394        V399   1.898       .  S
O394        C404   1.266   1_565  A
O395        V400   1.899       .  S
O396        V400   1.898   1_554  S
O397        V400   1.890   1_554  S
O397        C402   1.263       .  A
O398        V400   1.891       .  S
O398        C401   1.263       .  A
C402        C744   1.479       .  S
C403        C753   1.491       .  S
C404        C693   1.492       .  S
C405        C406   1.413       .  A
C405        C410   1.439       .  A
C405        C684   1.530       .  S
C406        C407   1.386       .  A
C406        C729   1.467       .  S
C407        C408   1.384       .  A
C407        H412   1.087       .  S
C408        C409   1.413       .  A
C408        C720   1.475       .  S
C409        C410   1.440       .  A
C409        C669   1.518       .  S
C410        H411   1.083       .  S
C413        C414   1.416       .  A
C413       C1182   1.396       .  A
C413        C657   1.476       .  S
C414       C1179   1.400   1_455  A
C414        C708   1.482       .  S
C415       C1178   1.399       .  A
C415        C416   1.397       .  A
C415        H420   1.086       .  S
C416        C417   1.414       .  A
C416        C696   1.479       .  S
C417        C418   1.396       .  A
C417        C645   1.477       .  S
C418       C1177   1.397       .  A
C418        H419   1.086       .  S
C421        C422   1.426   1_565  A
C421        C426   1.388       .  A
C421        C660   1.482       .  S
C422        C423   1.449       .  A
C422        C633   1.552       .  S
C423        C424   1.444       .  A
C423        H428   1.078       .  S
C424        C425   1.420       .  A
C424        C621   1.542       .  S
C425        C426   1.388   1_545  A
C425        C648   1.484       .  S
C426        H427   1.086       .  S
C429        C430   1.420       .  A
C429        C434   1.443       .  A
C429        C609   1.540       .  S
C430        C431   1.385   1_455  A
C430        C588   1.470       .  S
C431        C432   1.382       .  A
C431        H436   1.089       .  S
C432        C433   1.420       .  A
C432        C576   1.476       .  S
C433        C434   1.443   1_655  A
C433        C600   1.535       .  S
C434        H435   1.081       .  S
C437        C438   1.409       .  A
C437        C442   1.396       .  A
C437        C564   1.473       .  S
C438        C439   1.393   1_655  A
C438        C585   1.468       .  S
C439        H444   1.087       .  S
C440        C441   1.412       .  A
C440        C573   1.470       .  S
C441        C552   1.478       .  S
C442        H443   1.086       .  S
O445        V453   1.899       .  S
O445        C455   1.266   1_455  A
O446        V453   1.902       .  S
O446        C456   1.265   1_455  A
O447        V453   1.892       .  S
O447        C457   1.263   1_455  A
O448        V453   1.892       .  S
O448        C458   1.263   1_455  A
O449        V454   1.901       .  S
O449       C1222   1.266       .  A
O450        V454   1.900       .  S
O450       C1221   1.265       .  A
O451        V454   1.891       .  S
O451       C1220   1.264       .  A
O452        V454   1.888       .  S
O452       C1219   1.262       .  A
V453       V1218   2.083   1_455  T
V454       V1217   2.083       .  T
C455        C549   1.488       .  S
C455       O1216   1.263       .  A
C456        C540   1.491   1_655  S
C456       O1215   1.265       .  A
C457        C528   1.489       .  S
C457       O1214   1.266       .  A
C458        C561   1.488       .  S
C458       O1213   1.266       .  A
C459        C612   1.597       .  S
C459       C1388   1.597   1_455  S
C459        C636   1.603       .  S
C460        C461   1.409       .  A
C460        C516   1.467       .  S
C461        C537   1.476       .  S
C462        C463   1.396   1_545  A
C462        H467   1.086       .  S
C463        C464   1.407       .  A
C463        C525   1.474       .  S
C464        C465   1.392   1_565  A
C464        C504   1.463       .  S
C465        H466   1.087       .  S
C468        C469   1.415       .  A
C468        C473   1.440       .  A
C468        C489   1.525       .  S
C469        C470   1.385       .  A
C469        C513   1.472       .  S
C470        C471   1.384       .  A
C470        H475   1.088       .  S
C471        C472   1.412       .  A
C471        C501   1.468   1_455  S
C472        C473   1.438       .  A
C472        C480   1.525       .  S
C473        H474   1.083       .  S
C476        C492   1.607       .  S
C476       C1436   1.609   1_455  S
C476        C681   1.612       .  S
C477        C478   1.426       .  A
C477       C1246   1.429   1_455  A
C478        C479   1.415       .  A
C478        H483   1.078       .  S
C479        C480   1.410       .  A
C479        C486   1.444       .  S
C480       C1245   1.411   1_455  A
C481       C1244   1.412       .  A
C481        C482   1.416       .  A
C481        H484   1.083       .  S
C482       C1241   1.429       .  A
C482        C485   1.444       .  S
C485        N487   1.157   1_565  T
C486        N488   1.157       .  T
C489        C490   1.412       .  A
C489       C1258   1.410   1_455  A
C490        C491   1.419       .  A
C490        H495   1.084       .  S
C491        C492   1.430       .  A
C491        C498   1.443       .  S
C492       C1257   1.425   1_455  A
C493       C1256   1.426       .  A
C493        C494   1.416       .  A
C493        H496   1.077       .  S
C494       C1253   1.409       .  A
C494        C497   1.443       .  S
C497        N499   1.157       .  T
C498        N500   1.157       .  T
C501        C502   1.399   1_655  A
C501       C1270   1.412       .  A
C502        C503   1.396       .  A
C502        H507   1.085       .  S
C503        C504   1.412   1_455  A
C503        C510   1.445       .  S
C504       C1269   1.397       .  A
C505       C1268   1.399       .  A
C505        C506   1.396       .  A
C505        H508   1.085       .  S
C506       C1265   1.412       .  A
C506        C509   1.444       .  S
C509        N511   1.157       .  T
C510        N512   1.157       .  T
C513       C1278   1.398   1_455  A
C513        C518   1.413       .  A
C514       C1277   1.397       .  A
C514        C515   1.395       .  A
C514        H519   1.085       .  S
C515       C1280   1.414       .  A
C515        C522   1.445       .  S
C516       C1279   1.412   1_455  A
C516        C517   1.399       .  A
C517        C518   1.397       .  A
C517        H520   1.085       .  S
C518        C521   1.444       .  S
C521        N523   1.157       .  T
C522        N524   1.157       .  T
C525        C526   1.398   1_655  A
C525       C1294   1.408       .  A
C526        C527   1.400       .  A
C526        H531   1.085       .  S
C527        C528   1.421   1_455  A
C527        C534   1.444       .  S
C528       C1293   1.407       .  A
C529       C1292   1.405       .  A
C529        C530   1.398       .  A
C529        H532   1.084       .  S
C530       C1289   1.410       .  A
C530        C533   1.444       .  S
C533        N535   1.157       .  T
C534        N536   1.157       .  T
C537       C1302   1.401       .  A
C537        C542   1.408   1_455  A
C538       C1301   1.401       .  A
C538        C539   1.401       .  A
C538        H543   1.085       .  S
C539       C1304   1.417       .  A
C539        C546   1.444       .  S
C540       C1303   1.420       .  A
C540        C541   1.408   1_455  A
C541        C542   1.397       .  A
C541        H544   1.084       .  S
C542        C545   1.445       .  S
C545        N547   1.157       .  T
C546        N548   1.157       .  T
C549        C550   1.409   1_655  A
C549       C1318   1.417       .  A
C550        C551   1.400       .  A
C550        H555   1.084       .  S
C551        C552   1.408   1_455  A
C551        C558   1.444       .  S
C552       C1317   1.403       .  A
C553       C1316   1.400       .  A
C553        C554   1.397       .  A
C553        H556   1.084       .  S
C554       C1313   1.419       .  A
C554        C557   1.445       .  S
C557        N559   1.157       .  T
C558        N560   1.157       .  T
C561       C1326   1.409       .  A
C561        C566   1.418   1_655  A
C562       C1325   1.409       .  A
C562        C563   1.401       .  A
C562        H567   1.084       .  S
C563       C1328   1.406       .  A
C563        C570   1.444       .  S
C564       C1327   1.406       .  A
C564        C565   1.400   1_655  A
C565        C566   1.399       .  A
C565        H568   1.085       .  S
C566        C569   1.444       .  S
C569        N571   1.157       .  T
C570        N572   1.157       .  T
C573        C574   1.409   1_655  A
C573       C1342   1.404       .  A
C574        C575   1.397       .  A
C574        H579   1.085       .  S
C575        C576   1.404   1_455  A
C575        C582   1.443       .  S
C576       C1341   1.409       .  A
C577       C1340   1.409       .  A
C577        C578   1.395       .  A
C577        H580   1.085       .  S
C578       C1337   1.405       .  A
C578        C581   1.443       .  S
C581        N583   1.157       .  T
C582        N584   1.157       .  T
C585        C586   1.395   1_655  A
C585       C1354   1.416       .  A
C586        C587   1.392       .  A
C586        H591   1.085       .  S
C587        C588   1.418       .  A
C587        C594   1.446       .  S
C588       C1353   1.397   1_455  A
C589       C1352   1.396       .  A
C589        C590   1.395       .  A
C589        H592   1.085       .  S
C590       C1349   1.418       .  A
C590        C593   1.445       .  S
C593        N595   1.157       .  T
C594        N596   1.157       .  T
C597       C1362   1.413   1_455  A
C597        C602   1.447       .  A
C598       C1361   1.412       .  A
C598        C599   1.422       .  A
C598        H603   1.078       .  S
C599       C1364   1.429       .  A
C599        C606   1.441       .  S
C600       C1363   1.425       .  A
C600        C601   1.399   1_655  A
C601        C602   1.409       .  A
C601        H604   1.084       .  S
C602        C605   1.445       .  S
C605        N607   1.157       .  T
C606        N608   1.157       .  T
C609       C1374   1.400   1_455  A
C609        C614   1.428       .  A
C610       C1373   1.407       .  A
C610        C611   1.416       .  A
C610        H615   1.082       .  S
C611       C1376   1.443       .  A
C611        C618   1.445       .  S
C612       C1375   1.447   1_455  A
C612        C613   1.411       .  A
C613        C614   1.421       .  A
C613        H616   1.079       .  S
C614        C617   1.441       .  S
C617        N619   1.157       .  T
C618        N620   1.158       .  T
C621        C626   1.428   1_545  A
C622        C623   1.409       .  A
C622        H627   1.084       .  S
C623        C624   1.445       .  A
C623        C630   1.446       .  S
C624       C1223   1.597       .  S
C625        C626   1.421       .  A
C625        H628   1.079       .  S
C626        C629   1.440       .  S
C629        N631   1.157       .  T
C630        N632   1.158       .  T
C633        C634   1.405   1_545  A
C634        C635   1.412       .  A
C634        H639   1.082       .  S
C635        C642   1.445       .  S
C636        C637   1.412       .  A
C637        C638   1.423       .  A
C637        H640   1.078       .  S
C638        C641   1.441       .  S
C641        N643   1.157       .  T
C642        N644   1.158       .  T
C645        C646   1.397   1_545  A
C646        C647   1.393       .  A
C646        H651   1.082       .  S
C647        C648   1.419   1_565  A
C647        C654   1.446       .  S
C649        C650   1.399       .  A
C649        H652   1.085       .  S
C650        C653   1.445       .  S
C653        N655   1.157       .  T
C654        N656   1.157       .  T
C657        C658   1.410       .  A
C658        C659   1.402       .  A
C658        H663   1.085       .  S
C659        C660   1.407       .  A
C659        C666   1.443       .  S
C661        C662   1.394       .  A
C661        H664   1.085       .  S
C662        C665   1.443       .  S
C665        N667   1.157       .  T
C666        N668   1.157       .  T
C669        C670   1.412       .  A
C670        C671   1.420       .  A
C670        H675   1.083       .  S
C671        C672   1.428       .  A
C671        C678   1.443       .  S
C672       C1240   1.607       .  S
C673        C674   1.412       .  A
C673        H676   1.077       .  S
C674        C677   1.444       .  S
C677        N679   1.157       .  T
C678        N680   1.157       .  T
C681        C682   1.430       .  A
C682        C683   1.417       .  A
C682        H687   1.077       .  S
C683        C684   1.408       .  A
C683        C690   1.443       .  S
C685        C686   1.420       .  A
C685        H688   1.083       .  S
C686        C689   1.443       .  S
C689        N691   1.157       .  T
C690        N692   1.157       .  T
C693        C694   1.406   1_545  A
C694        C695   1.396       .  A
C694        H699   1.084       .  S
C695        C696   1.411   1_565  A
C695        C702   1.446       .  S
C697        C698   1.401       .  A
C697        H700   1.085       .  S
C698        C701   1.444       .  S
C701        N703   1.157       .  T
C702        N704   1.157       .  T
C705        C710   1.419       .  A
C706        C707   1.395       .  A
C706        H711   1.085       .  S
C707        C714   1.445       .  S
C708        C709   1.401       .  A
C709        C710   1.407       .  A
C709        H712   1.085       .  S
C710        C713   1.443       .  S
C713        N715   1.157       .  T
C714        N716   1.157       .  T
C717        C722   1.412       .  A
C718        C719   1.395       .  A
C718        H723   1.085       .  S
C719        C726   1.444       .  S
C720        C721   1.401       .  A
C721        C722   1.396       .  A
C721        H724   1.084       .  S
C722        C725   1.445       .  S
C725        N727   1.157       .  T
C726        N728   1.157       .  T
C729        C734   1.409       .  A
C730        C731   1.396       .  A
C730        H735   1.085       .  S
C731        C738   1.444       .  S
C732        C733   1.400       .  A
C733        C734   1.396       .  A
C733        H736   1.085       .  S
C734        C737   1.444       .  S
C737        N739   1.157       .  T
C738        N740   1.157       .  T
C741        C746   1.409   1_545  A
C742        C743   1.399       .  A
C742        H747   1.084       .  S
C743        C744   1.417       .  A
C743        C750   1.445       .  S
C745        C746   1.398       .  A
C745        H748   1.085       .  S
C746        C749   1.444       .  S
C749        N751   1.157       .  T
C750        N752   1.157       .  T
C753        C758   1.419       .  A
C754        C755   1.401       .  A
C754        H759   1.084       .  S
C755        C762   1.444       .  S
C756        C757   1.400       .  A
C757        C758   1.402       .  A
C757        H760   1.085       .  S
C758        C761   1.443       .  S
C761        N763   1.157       .  T
C762        N764   1.157       .  T
C765       C1148   1.407       .  A
C765        C770   1.391       .  A
C765       C1114   1.465       .  S
C766       C1147   1.412       .  A
C766       C1138   1.482       .  S
C767        C768   1.397   1_455  A
C768       C1151   1.406       .  A
C768       C1123   1.471       .  S
C769       C1150   1.411       .  A
C769       C1099   1.467       .  S
O773        V781   1.897       .  S
O773       C1165   1.263       .  A
O774        V781   1.894   1_554  S
O774       C1166   1.265       .  A
O775        V781   1.902   1_554  S
O775        C785   1.265       .  A
O776        V781   1.897       .  S
O776        C786   1.266       .  A
O777        V782   1.898       .  S
O777       C1168   1.265   1_545  A
O778        V782   1.900   1_554  S
O778       C1167   1.265       .  A
O779        V782   1.893   1_554  S
O779        C784   1.264   1_545  A
O780        V782   1.894       .  S
O780        C783   1.263       .  A
V781       V1164   2.084       .  T
V782       V1163   2.084   1_545  T
C783       C1469   1.481       .  S
C783       O1155   1.265   1_545  A
C784       C1126   1.490       .  S
C784       O1156   1.266       .  A
C785       C1135   1.484       .  S
C785       O1160   1.264       .  A
C786       C1075   1.489       .  S
C786       O1159   1.263       .  A
C787        C788   1.411   1_545  A
C787        C792   1.437   1_545  A
C787       C1066   1.520       .  S
C788        C789   1.383       .  A
C788       C1111   1.469   1_565  S
C789        C790   1.386       .  A
C789        H794   1.087       .  S
C790        C791   1.413       .  A
C790       C1102   1.469       .  S
C791        C792   1.437       .  A
C791       C1051   1.520       .  S
C792        H793   1.083   1_565  S
C795        C796   1.415       .  A
C795       C1039   1.476       .  S
C796       C1090   1.484       .  S
C797        C798   1.395   1_455  A
C797        H802   1.086       .  S
C798        C799   1.412       .  A
C798       C1078   1.474       .  S
C799        C800   1.393   1_655  A
C799       C1027   1.474       .  S
C800        H801   1.086       .  S
C803        C804   1.426       .  A
C803        C808   1.387       .  A
C803       C1042   1.482       .  S
C804        C805   1.448       .  A
C804       C1015   1.550       .  S
C805        C806   1.444       .  A
C805        H810   1.077       .  S
C806        C807   1.418       .  A
C806       C1003   1.544       .  S
C807        C808   1.386       .  A
C807       C1030   1.478       .  S
C808        H809   1.086       .  S
C811        C812   1.424       .  A
C811        C816   1.444       .  A
C811        C991   1.545       .  S
C812        C813   1.388       .  A
C812        C970   1.473       .  S
C813        C814   1.381       .  A
C813        H818   1.088       .  S
C814        C815   1.415       .  A
C814        C958   1.477       .  S
C815        C816   1.441       .  A
C815        C982   1.531       .  S
C816        H817   1.080       .  S
C819        C820   1.410       .  A
C819        C824   1.395       .  A
C819        C946   1.475       .  S
C820        C821   1.394       .  A
C820        C967   1.468       .  S
C821       C1204   1.392   1_545  A
C821        H826   1.087       .  S
C822       C1203   1.392       .  A
C822        C823   1.410       .  A
C822        C955   1.469       .  S
C823       C1206   1.397       .  A
C823        C934   1.475       .  S
C824       C1205   1.398   1_545  A
C824        H825   1.086       .  S
O827        V835   1.898       .  S
O827        C837   1.265       .  A
O828        V835   1.897       .  S
O828        C838   1.264       .  A
O829        V835   1.893       .  S
O829        C839   1.263       .  A
O830        V835   1.892       .  S
O830        C840   1.263       .  A
O831        V836   1.904       .  S
O832        V836   1.900       .  S
O833        V836   1.891       .  S
O834        V836   1.888       .  S
C837        C931   1.487       .  S
C838        C922   1.489       .  S
C839        C910   1.486       .  S
C840        C943   1.490       .  S
C841       C1361   1.603   1_545  S
C841        C994   1.595       .  S
C841       C1018   1.598       .  S
C842        C843   1.407       .  A
C842       C1229   1.390       .  A
C842        C898   1.462       .  S
C843       C1226   1.398       .  A
C843        C919   1.475       .  S
C844       C1225   1.396       .  A
C844        C845   1.395       .  A
C844        H849   1.086       .  S
C845        C846   1.406       .  A
C845        C907   1.470       .  S
C846        C847   1.390       .  A
C846        C886   1.462       .  S
C847       C1224   1.392       .  A
C847        H848   1.087       .  S
C850        C851   1.412       .  A
C850        C855   1.438       .  A
C850        C871   1.519       .  S
C851        C852   1.382       .  A
C851        C895   1.467       .  S
C852        C853   1.381       .  A
C852        H857   1.088       .  S
C853        C854   1.412       .  A
C853        C883   1.467       .  S
C854        C855   1.438       .  A
C854        C862   1.519       .  S
C855        H856   1.083       .  S
C858       C1241   1.604   1_545  S
C858        C874   1.602       .  S
C858       C1063   1.604       .  S
C859        C860   1.424       .  A
C859       C1240   1.601       .  S
C860        C861   1.414       .  A
C860        H865   1.078       .  S
C861        C862   1.409       .  A
C861        C868   1.443       .  S
C863        C864   1.416       .  A
C863        H866   1.082       .  S
C864        C867   1.444       .  S
C867        N869   1.157       .  T
C868        N870   1.157       .  T
C871        C872   1.409       .  A
C872        C873   1.415       .  A
C872        H877   1.084       .  S
C873        C874   1.431       .  A
C873        C880   1.444       .  S
C875        C876   1.417       .  A
C875        H878   1.078       .  S
C876        C879   1.443       .  S
C879        N881   1.157       .  T
C880        N882   1.157       .  T
C883        C884   1.400       .  A
C884        C885   1.396       .  A
C884        H889   1.085       .  S
C885        C886   1.410       .  A
C885        C892   1.444       .  S
C887        C888   1.396       .  A
C887        H890   1.084       .  S
C888        C891   1.444       .  S
C891        N893   1.157       .  T
C892        N894   1.157       .  T
C895        C900   1.410       .  A
C896        C897   1.398       .  A
C896        H901   1.085       .  S
C897        C904   1.444       .  S
C898        C899   1.399       .  A
C899        C900   1.394       .  A
C899        H902   1.085       .  S
C900        C903   1.444       .  S
C903        N905   1.157       .  T
C904        N906   1.157       .  T
C907        C908   1.400       .  A
C908        C909   1.400       .  A
C908        H913   1.085       .  S
C909        C910   1.418       .  A
C909        C916   1.444       .  S
C911        C912   1.398       .  A
C911        H914   1.084       .  S
C912        C915   1.444       .  S
C915        N917   1.157       .  T
C916        N918   1.157       .  T
C919        C924   1.408       .  A
C920        C921   1.400       .  A
C920        H925   1.085       .  S
C921        C928   1.444       .  S
C922        C923   1.407       .  A
C923        C924   1.399       .  A
C923        H926   1.084       .  S
C924        C927   1.444       .  S
C927        N929   1.157       .  T
C928        N930   1.157       .  T
C931        C932   1.411       .  A
C932        C933   1.402       .  A
C932        H937   1.084       .  S
C933        C934   1.405       .  A
C933        C940   1.443       .  S
C935        C936   1.393       .  A
C935        H938   1.085       .  S
C936        C939   1.445       .  S
C939        N941   1.157       .  T
C940        N942   1.157       .  T
C943        C948   1.419       .  A
C944        C945   1.403       .  A
C944        H949   1.084       .  S
C945        C952   1.443       .  S
C946        C947   1.399       .  A
C947        C948   1.397       .  A
C947        H950   1.085       .  S
C948        C951   1.444       .  S
C951        N953   1.157       .  T
C952        N954   1.157       .  T
C955        C956   1.406       .  A
C956        C957   1.398       .  A
C956        H961   1.085       .  S
C957        C958   1.407       .  A
C957        C964   1.444       .  S
C959        C960   1.391       .  A
C959        H962   1.085       .  S
C960        C963   1.444       .  S
C963        N965   1.157       .  T
C964        N966   1.157       .  T
C967        C968   1.396       .  A
C968        C969   1.391       .  A
C968        H973   1.083       .  S
C969        C970   1.419       .  A
C969        C976   1.447       .  S
C971        C972   1.398       .  A
C971        H974   1.085       .  S
C972        C975   1.445       .  S
C975        N977   1.157       .  T
C976        N978   1.157       .  T
C979        C984   1.450       .  A
C979       C1223   1.599       .  S
C980        C981   1.420       .  A
C980        H985   1.077       .  S
C981        C988   1.441       .  S
C982        C983   1.397       .  A
C983        C984   1.408       .  A
C983        H986   1.084       .  S
C984        C987   1.446       .  S
C987        N989   1.158       .  T
C988        N990   1.157       .  T
C991        C996   1.430       .  A
C992        C993   1.411       .  A
C992        H997   1.083       .  S
C993       C1000   1.445       .  S
C994        C995   1.411       .  A
C995        C996   1.422       .  A
C995        H998   1.079       .  S
C996        C999   1.440       .  S
C999       N1001   1.157       .  T
C1000      N1002   1.158       .  T
C1003      C1386   1.400       .  A
C1003      C1008   1.431       .  A
C1004      C1385   1.401   1_545  A
C1004      C1005   1.411       .  A
C1004      H1009   1.084       .  S
C1005      C1006   1.448   1_545  A
C1005      C1012   1.447       .  S
C1006      C1389   1.413       .  A
C1007      C1388   1.409       .  A
C1007      C1008   1.421       .  A
C1007      H1010   1.079       .  S
C1008      C1011   1.440       .  S
C1011      N1013   1.157       .  T
C1012      N1014   1.158       .  T
C1015      C1016   1.406       .  A
C1015      C1402   1.432       .  A
C1016      C1017   1.412       .  A
C1016      H1021   1.081       .  S
C1017      C1400   1.441       .  A
C1017      C1024   1.445       .  S
C1018      C1399   1.442   1_545  A
C1018      C1019   1.411       .  A
C1019      C1020   1.423       .  A
C1019      H1022   1.078       .  S
C1020      C1397   1.432       .  A
C1020      C1023   1.440       .  S
C1023      N1025   1.157       .  T
C1024      N1026   1.158       .  T
C1027      C1028   1.397       .  A
C1027      C1414   1.416       .  A
C1028      C1029   1.390       .  A
C1028      H1033   1.080       .  S
C1029      C1030   1.417       .  A
C1029      C1036   1.447       .  S
C1030      C1413   1.399       .  A
C1031      C1412   1.397   1_545  A
C1031      C1032   1.396       .  A
C1031      H1034   1.085       .  S
C1032      C1409   1.417   1_545  A
C1032      C1035   1.445       .  S
C1035      N1037   1.157       .  T
C1036      N1038   1.157       .  T
C1039      C1040   1.410       .  A
C1039      C1426   1.407       .  A
C1040      C1041   1.401       .  A
C1040      H1045   1.085       .  S
C1041      C1042   1.407       .  A
C1041      C1048   1.443       .  S
C1042      C1425   1.407       .  A
C1043      C1424   1.411       .  A
C1043      C1044   1.399       .  A
C1043      H1046   1.085       .  S
C1044      C1421   1.404       .  A
C1044      C1047   1.443       .  S
C1047      N1049   1.157       .  T
C1048      N1050   1.157       .  T
C1051      C1052   1.411   1_565  A
C1051      C1438   1.406       .  A
C1052      C1053   1.420       .  A
C1052      H1057   1.083       .  S
C1053      C1054   1.430   1_545  A
C1053      C1060   1.443       .  S
C1054      C1437   1.429       .  A
C1055      C1436   1.427       .  A
C1055      C1056   1.411       .  A
C1055      H1058   1.078       .  S
C1056      C1433   1.407       .  A
C1056      C1059   1.444       .  S
C1059      N1061   1.157       .  T
C1060      N1062   1.157       .  T
C1063      C1064   1.428       .  A
C1063      C1450   1.427   1_545  A
C1064      C1065   1.412       .  A
C1064      H1069   1.078       .  S
C1065      C1066   1.406       .  A
C1065      C1072   1.443       .  S
C1066      C1449   1.413   1_545  A
C1067      C1448   1.412       .  A
C1067      C1068   1.420       .  A
C1067      H1070   1.084       .  S
C1068      C1445   1.431       .  A
C1068      C1071   1.443       .  S
C1071      N1073   1.157       .  T
C1072      N1074   1.157       .  T
C1075      C1076   1.406       .  A
C1075      C1462   1.421       .  A
C1076      C1077   1.395       .  A
C1076      H1081   1.084       .  S
C1077      C1078   1.410       .  A
C1077      C1084   1.446       .  S
C1078      C1461   1.399       .  A
C1079      C1460   1.400   1_545  A
C1079      C1080   1.401       .  A
C1079      H1082   1.085       .  S
C1080      C1457   1.420   1_545  A
C1080      C1083   1.444       .  S
C1083      N1085   1.157       .  T
C1084      N1086   1.157       .  T
C1087      C1470   1.399       .  A
C1087      C1092   1.420       .  A
C1087      C1165   1.483       .  S
C1088      C1469   1.402       .  A
C1088      C1089   1.398       .  A
C1088      H1093   1.085       .  S
C1089      C1472   1.414       .  A
C1089      C1096   1.445       .  S
C1090      C1471   1.417       .  A
C1090      C1091   1.401       .  A
C1091      C1092   1.406       .  A
C1091      H1094   1.084       .  S
C1092      C1095   1.444       .  S
C1095      N1097   1.157       .  T
C1096      N1098   1.157       .  T
C1099      C1482   1.401       .  A
C1099      C1104   1.412   1_565  A
C1100      C1481   1.403       .  A
C1100      C1101   1.396       .  A
C1100      H1105   1.085       .  S
C1101      C1484   1.408       .  A
C1101      C1108   1.444       .  S
C1102      C1483   1.411       .  A
C1102      C1103   1.399   1_565  A
C1103      C1104   1.394       .  A
C1103      H1106   1.085       .  S
C1104      C1107   1.444       .  S
C1107      N1109   1.157       .  T
C1108      N1110   1.157       .  T
C1111      C1494   1.399   1_545  A
C1111      C1116   1.410       .  A
C1112      C1493   1.407       .  A
C1112      C1113   1.397       .  A
C1112      H1117   1.085       .  S
C1113      C1496   1.405       .  A
C1113      C1120   1.444       .  S
C1114      C1495   1.411   1_545  A
C1114      C1115   1.399       .  A
C1115      C1116   1.397       .  A
C1115      H1118   1.085       .  S
C1116      C1119   1.444       .  S
C1119      N1121   1.157       .  T
C1120      N1122   1.157       .  T
C1123      C1506   1.399       .  A
C1123      C1128   1.407       .  A
C1124      C1505   1.398   1_545  A
C1124      C1125   1.398       .  A
C1124      H1129   1.084       .  S
C1125      C1126   1.420   1_545  A
C1125      C1132   1.445       .  S
C1126      C1509   1.408       .  A
C1127      C1508   1.408       .  A
C1127      C1128   1.395       .  A
C1127      H1130   1.084       .  S
C1128      C1131   1.446       .  S
C1131      N1133   1.157       .  T
C1132      N1134   1.157       .  T
C1135      C1518   1.407       .  A
C1135      C1140   1.413       .  A
C1136      C1517   1.408       .  A
C1136      C1137   1.401       .  A
C1136      H1141   1.084       .  S
C1137      C1520   1.408       .  A
C1137      C1144   1.444       .  S
C1138      C1519   1.409       .  A
C1138      C1139   1.406       .  A
C1139      C1140   1.401       .  A
C1139      H1142   1.085       .  S
C1140      C1143   1.444       .  S
C1143      N1145   1.157       .  T
C1144      N1146   1.157       .  T
C1147      C1152   1.394       .  A
C1147      C1496   1.469       .  S
C1148      C1520   1.475       .  S
C1149      C1150   1.400   1_455  A
C1150      C1505   1.477       .  S
C1151      C1481   1.465       .  S
O1155      V1163   1.900       .  S
O1156      V1163   1.905   1_554  S
O1157      V1163   1.897   1_554  S
O1157      C1167   1.265   1_565  A
O1158      V1163   1.899       .  S
O1158      C1168   1.265       .  A
O1159      V1164   1.896       .  S
O1160      V1164   1.894   1_554  S
O1161      V1164   1.899   1_554  S
O1161      C1166   1.264       .  A
O1162      V1164   1.896       .  S
O1162      C1165   1.266       .  A
C1166      C1508   1.489       .  S
C1167      C1517   1.487       .  S
C1168      C1457   1.491       .  S
C1169      C1170   1.416       .  A
C1169      C1174   1.438       .  A
C1169      C1448   1.525       .  S
C1170      C1171   1.386       .  A
C1170      C1493   1.472       .  S
C1171      C1172   1.385       .  A
C1171      H1176   1.088       .  S
C1172      C1173   1.412       .  A
C1172      C1484   1.468       .  S
C1173      C1174   1.438       .  A
C1173      C1433   1.523       .  S
C1174      H1175   1.083       .  S
C1177      C1178   1.413       .  A
C1177      C1421   1.476       .  S
C1178      C1472   1.481       .  S
C1179      C1180   1.396       .  A
C1179      H1184   1.086       .  S
C1180      C1181   1.409       .  A
C1180      C1460   1.477       .  S
C1181      C1182   1.395   1_655  A
C1181      C1409   1.472       .  S
C1182      H1183   1.086       .  S
C1185      C1186   1.429       .  A
C1185      C1190   1.387       .  A
C1185      C1424   1.477       .  S
C1186      C1187   1.450       .  A
C1186      C1397   1.553       .  S
C1187      C1188   1.444   1_545  A
C1187      H1192   1.079       .  S
C1188      C1189   1.419       .  A
C1188      C1385   1.543       .  S
C1189      C1190   1.386   1_565  A
C1189      C1412   1.475       .  S
C1190      H1191   1.089   1_545  S
C1193      C1194   1.426       .  A
C1193      C1198   1.452       .  A
C1193      C1373   1.558       .  S
C1194      C1195   1.386       .  A
C1194      C1352   1.474       .  S
C1195      C1196   1.382       .  A
C1195      H1200   1.089       .  S
C1196      C1197   1.421       .  A
C1196      C1340   1.482       .  S
C1197      C1198   1.451       .  A
C1197      C1364   1.546       .  S
C1198      H1199   1.079       .  S
C1201      C1202   1.410       .  A
C1201      C1206   1.397       .  A
C1201      C1328   1.474       .  S
C1202      C1203   1.394       .  A
C1202      C1349   1.472       .  S
C1203      H1208   1.087       .  S
C1204      C1205   1.412       .  A
C1204      C1337   1.473       .  S
C1205      C1316   1.473       .  S
C1206      H1207   1.086       .  S
O1209      V1217   1.903       .  S
O1209      C1219   1.266       .  A
O1210      V1217   1.902       .  S
O1210      C1220   1.265       .  A
O1211      V1217   1.894       .  S
O1211      C1221   1.263       .  A
O1212      V1217   1.893       .  S
O1212      C1222   1.263       .  A
O1213      V1218   1.902       .  S
O1214      V1218   1.903       .  S
O1215      V1218   1.895       .  S
O1216      V1218   1.894       .  S
C1219      C1313   1.489       .  S
C1220      C1304   1.489       .  S
C1221      C1292   1.484       .  S
C1222      C1325   1.489       .  S
C1223      C1376   1.600       .  S
C1223      C1400   1.592       .  S
C1224      C1225   1.409       .  A
C1224      C1280   1.465       .  S
C1225      C1301   1.472       .  S
C1226      C1227   1.399   1_545  A
C1226      H1231   1.086       .  S
C1227      C1228   1.409       .  A
C1227      C1289   1.474       .  S
C1228      C1229   1.391   1_565  A
C1228      C1268   1.467       .  S
C1229      H1230   1.087       .  S
C1232      C1233   1.411       .  A
C1232      C1237   1.440       .  A
C1232      C1253   1.525       .  S
C1233      C1234   1.384       .  A
C1233      C1277   1.468       .  S
C1234      C1235   1.382       .  A
C1234      H1239   1.088       .  S
C1235      C1236   1.414       .  A
C1235      C1265   1.471       .  S
C1236      C1237   1.442       .  A
C1236      C1244   1.525       .  S
C1237      H1238   1.083       .  S
C1240      C1256   1.610       .  S
C1240      C1445   1.607       .  S
C1241      C1242   1.425       .  A
C1242      C1243   1.415       .  A
C1242      H1247   1.078       .  S
C1243      C1244   1.410       .  A
C1243      C1250   1.443       .  S
C1245      C1246   1.418       .  A
C1245      H1248   1.082       .  S
C1246      C1249   1.443       .  S
C1249      N1251   1.157       .  T
C1250      N1252   1.157       .  T
C1253      C1254   1.411       .  A
C1254      C1255   1.421       .  A
C1254      H1259   1.084       .  S
C1255      C1256   1.432       .  A
C1255      C1262   1.444       .  S
C1257      C1258   1.415       .  A
C1257      H1260   1.078       .  S
C1258      C1261   1.444       .  S
C1261      N1263   1.157       .  T
C1262      N1264   1.157       .  T
C1265      C1266   1.398       .  A
C1266      C1267   1.395       .  A
C1266      H1271   1.085       .  S
C1267      C1268   1.412       .  A
C1267      C1274   1.445       .  S
C1269      C1270   1.394       .  A
C1269      H1272   1.085       .  S
C1270      C1273   1.444       .  S
C1273      N1275   1.157       .  T
C1274      N1276   1.157       .  T
C1277      C1282   1.412       .  A
C1278      C1279   1.396       .  A
C1278      H1283   1.085       .  S
C1279      C1286   1.445       .  S
C1280      C1281   1.397       .  A
C1281      C1282   1.394       .  A
C1281      H1284   1.085       .  S
C1282      C1285   1.445       .  S
C1285      N1287   1.157       .  T
C1286      N1288   1.157       .  T
C1289      C1290   1.399       .  A
C1290      C1291   1.400       .  A
C1290      H1295   1.085       .  S
C1291      C1292   1.419       .  A
C1291      C1298   1.444       .  S
C1293      C1294   1.400       .  A
C1293      H1296   1.084       .  S
C1294      C1297   1.444       .  S
C1297      N1299   1.157       .  T
C1298      N1300   1.157       .  T
C1301      C1306   1.406       .  A
C1302      C1303   1.404       .  A
C1302      H1307   1.085       .  S
C1303      C1310   1.444       .  S
C1304      C1305   1.410       .  A
C1305      C1306   1.398       .  A
C1305      H1308   1.084       .  S
C1306      C1309   1.445       .  S
C1309      N1311   1.157       .  T
C1310      N1312   1.157       .  T
C1313      C1314   1.409       .  A
C1314      C1315   1.402       .  A
C1314      H1319   1.084       .  S
C1315      C1316   1.407       .  A
C1315      C1322   1.444       .  S
C1317      C1318   1.399       .  A
C1317      H1320   1.085       .  S
C1318      C1321   1.444       .  S
C1321      N1323   1.157       .  T
C1322      N1324   1.157       .  T
C1325      C1330   1.419       .  A
C1326      C1327   1.401       .  A
C1326      H1331   1.084       .  S
C1327      C1334   1.444       .  S
C1328      C1329   1.401       .  A
C1329      C1330   1.399       .  A
C1329      H1332   1.085       .  S
C1330      C1333   1.444       .  S
C1333      N1335   1.157       .  T
C1334      N1336   1.157       .  T
C1337      C1338   1.409       .  A
C1338      C1339   1.400       .  A
C1338      H1343   1.085       .  S
C1339      C1340   1.407       .  A
C1339      C1346   1.443       .  S
C1341      C1342   1.394       .  A
C1341      H1344   1.085       .  S
C1342      C1345   1.444       .  S
C1345      N1347   1.157       .  T
C1346      N1348   1.157       .  T
C1349      C1350   1.395       .  A
C1350      C1351   1.394       .  A
C1350      H1355   1.085       .  S
C1351      C1352   1.421       .  A
C1351      C1358   1.447       .  S
C1353      C1354   1.394       .  A
C1353      H1356   1.085       .  S
C1354      C1357   1.445       .  S
C1357      N1359   1.157       .  T
C1358      N1360   1.157       .  T
C1361      C1366   1.445       .  A
C1362      C1363   1.420       .  A
C1362      H1367   1.078       .  S
C1363      C1370   1.441       .  S
C1364      C1365   1.402       .  A
C1365      C1366   1.414       .  A
C1365      H1368   1.083       .  S
C1366      C1369   1.443       .  S
C1369      N1371   1.157       .  T
C1370      N1372   1.157       .  T
C1373      C1378   1.434       .  A
C1374      C1375   1.410       .  A
C1374      H1379   1.084       .  S
C1375      C1382   1.446       .  S
C1376      C1377   1.410       .  A
C1377      C1378   1.424       .  A
C1377      H1380   1.078       .  S
C1378      C1381   1.440       .  S
C1381      N1383   1.157       .  T
C1382      N1384   1.158       .  T
C1385      C1390   1.428       .  A
C1386      C1387   1.410       .  A
C1386      H1391   1.083       .  S
C1387      C1388   1.448       .  A
C1387      C1394   1.446       .  S
C1389      C1390   1.422       .  A
C1389      H1392   1.080       .  S
C1390      C1393   1.441       .  S
C1393      N1395   1.157       .  T
C1394      N1396   1.158       .  T
C1397      C1398   1.406   1_545  A
C1398      C1399   1.412       .  A
C1398      H1403   1.082       .  S
C1399      C1406   1.444       .  S
C1400      C1401   1.409       .  A
C1401      C1402   1.422       .  A
C1401      H1404   1.079       .  S
C1402      C1405   1.439       .  S
C1405      N1407   1.157       .  T
C1406      N1408   1.157       .  T
C1409      C1410   1.396       .  A
C1410      C1411   1.395       .  A
C1410      H1415   1.085       .  S
C1411      C1412   1.418       .  A
C1411      C1418   1.446       .  S
C1413      C1414   1.397       .  A
C1413      H1416   1.085       .  S
C1414      C1417   1.445       .  S
C1417      N1419   1.157       .  T
C1418      N1420   1.157       .  T
C1421      C1422   1.409   1_545  A
C1422      C1423   1.397       .  A
C1422      H1427   1.085       .  S
C1423      C1424   1.404   1_565  A
C1423      C1430   1.442       .  S
C1425      C1426   1.393       .  A
C1425      H1428   1.085       .  S
C1426      C1429   1.442       .  S
C1429      N1431   1.157       .  T
C1430      N1432   1.157       .  T
C1433      C1434   1.413       .  A
C1434      C1435   1.422       .  A
C1434      H1439   1.083       .  S
C1435      C1436   1.429       .  A
C1435      C1442   1.443       .  S
C1437      C1438   1.413       .  A
C1437      H1440   1.077       .  S
C1438      C1441   1.444       .  S
C1441      N1443   1.157       .  T
C1442      N1444   1.157   1_655  T
C1445      C1446   1.425       .  A
C1446      C1447   1.413       .  A
C1446      H1451   1.078       .  S
C1447      C1448   1.409       .  A
C1447      C1454   1.444       .  S
C1449      C1450   1.418       .  A
C1449      H1452   1.083       .  S
C1450      C1453   1.443       .  S
C1453      N1455   1.157       .  T
C1454      N1456   1.157       .  T
C1457      C1458   1.408       .  A
C1458      C1459   1.400       .  A
C1458      H1463   1.084       .  S
C1459      C1460   1.407       .  A
C1459      C1466   1.444       .  S
C1461      C1462   1.403       .  A
C1461      H1464   1.085       .  S
C1462      C1465   1.444       .  S
C1465      N1467   1.157       .  T
C1466      N1468   1.157       .  T
C1469      C1474   1.416   1_545  A
C1470      C1471   1.392       .  A
C1470      H1475   1.085       .  S
C1471      C1478   1.447       .  S
C1472      C1473   1.401       .  A
C1473      C1474   1.402   1_545  A
C1473      H1476   1.085   1_545  S
C1474      C1477   1.444       .  S
C1477      N1479   1.157       .  T
C1478      N1480   1.157       .  T
C1481      C1486   1.406       .  A
C1482      C1483   1.399       .  A
C1482      H1487   1.085       .  S
C1483      C1490   1.444       .  S
C1484      C1485   1.402       .  A
C1485      C1486   1.395       .  A
C1485      H1488   1.085       .  S
C1486      C1489   1.444       .  S
C1489      N1491   1.157       .  T
C1490      N1492   1.157       .  T
C1493      C1498   1.405       .  A
C1494      C1495   1.394       .  A
C1494      H1499   1.085       .  S
C1495      C1502   1.445       .  S
C1496      C1497   1.405       .  A
C1497      C1498   1.394       .  A
C1497      H1500   1.085       .  S
C1498      C1501   1.443       .  S
C1501      N1503   1.157       .  T
C1502      N1504   1.157       .  T
C1505      C1510   1.409       .  A
C1506      C1507   1.402       .  A
C1506      H1511   1.085       .  S
C1507      C1508   1.420       .  A
C1507      C1514   1.443       .  S
C1509      C1510   1.403       .  A
C1509      H1512   1.084       .  S
C1510      C1513   1.444       .  S
C1513      N1515   1.157       .  T
C1514      N1516   1.157       .  T
C1517      C1522   1.419   1_545  A
C1518      C1519   1.400       .  A
C1518      H1523   1.085       .  S
C1519      C1526   1.443       .  S
C1520      C1521   1.399   1_545  A
C1521      C1522   1.399       .  A
C1521      H1524   1.084       .  S
C1522      C1525   1.444       .  S
C1525      N1527   1.157       .  T
C1526      N1528   1.157       .  T
