geometry optimzed in LAMMPS
_audit_creation_date              2020-11-30 
_audit_creation_method            'lammps2cif' 
_symmetry_space_group_name_H-M    'P1' 
_symmetry_Int_Tables_number       1 
_symmetry_cell_setting            triclinic 
loop_ 
_symmetry_equiv_pos_as_xyz 
  x,y,z 
_cell_length_a                    44.71253037 
_cell_length_b                    45.307335863084155 
_cell_length_c                    111.98127451667733 
_cell_angle_alpha                 90.17570598463946 
_cell_angle_beta                  89.97117494196289 
_cell_angle_gamma                 90.23472615718998 
loop_ 
_atom_site_label 
_atom_site_type_symbol 
_atom_site_fract_x 
_atom_site_fract_y 
_atom_site_fract_z 
_atom_site_charge 
N1          N  0.45860114  0.98289515  0.08660461    -0.36600
N2          N  0.99851594  0.45611308  0.10123253    -0.57100
N3          N  0.04295840  0.47299085  0.08375482    -0.36600
N4          N  0.00399582  0.99985706  0.06982338    -0.57100
C5          C  0.44158587  0.48086416  0.09752735     0.27000
C6          C  0.44334554  0.00298319  0.08014393     0.27000
C7          C  0.06081097  0.46663972  0.09315504     0.27000
C8          C  0.06688317  0.98601694  0.07620817     0.27000
C9          C  0.47819850  0.44811522  0.10751370     0.35600
C10         C  0.02253570  0.44279815  0.10608356     0.35600
C11         C  0.47863054  0.00728880  0.06323405     0.35600
C12         C  0.02682321  0.00026557  0.06196957     0.35600
C13         C  0.41618568  0.49835769  0.09775773    -0.21800
C14         C  0.41819213  0.01192024  0.08640054    -0.21800
C15         C  0.08930577  0.47774903  0.09108386    -0.21800
C16         C  0.09588851  0.98833069  0.08049396    -0.21800
C17         C  0.48666278  0.42812315  0.11620783    -0.22900
C18         C  0.01361061  0.42408535  0.11519948    -0.22900
C19         C  0.48589993  0.01214994  0.05136869    -0.22900
C20         C  0.01661794  0.00774920  0.05069402    -0.22900
C21         C  0.44936578  0.46019728  0.10636949    -0.18300
C22         C  0.45010766  0.01127467  0.06831047    -0.18300
C23         C  0.05708832  0.99726133  0.06513426    -0.18200
C24         C  0.05243139  0.45007916  0.10331992    -0.18200
H25         H  0.39953183  0.49977204  0.10474687     0.14700
H26         H  0.40128326  0.02737447  0.08352105     0.14700
H27         H  0.10875539  0.47594782  0.09677806     0.14700
H28         H  0.11476183  0.99905604  0.07625155     0.14700
H29         H  0.47257067  0.41764855  0.12283082     0.12900
H30         H  0.02768421  0.41111458  0.12101165     0.12900
H31         H  0.47111047  0.01856032  0.04419338     0.12900
H32         H  0.02973333  0.01048454  0.04264253     0.12900
H33         H  0.47593790  0.96970369  0.08350717     0.26200
H34         H  0.02155022  0.46484262  0.08221213     0.26200
C35         C  0.22637570  0.08284987  0.00318217     0.02300
C36         C  0.22433409  0.07697052  0.01561543     0.02300
C37         C  0.25012828  0.07693380  0.02267124    -0.18200
C38         C  0.27849947  0.07936564  0.01755812     0.02300
C39         C  0.28100641  0.08513181  0.00522770     0.02300
C40         C  0.25496397  0.08914346  0.99844190    -0.18200
H41         H  0.25742425  0.09404573  0.98903531     0.04300
H42         H  0.24825563  0.07190387  0.03211619     0.04300
O43         O  0.27823351  0.41725961  0.17149289    -0.71700
O44         O  0.21988932  0.39216208  0.19379898    -0.72000
O45         O  0.28001948  0.39418089  0.19344125    -0.71800
O46         O  0.21835202  0.41524391  0.17173864    -0.71800
O47         O  0.21903012  0.37100466  0.16424642    -0.71800
O48         O  0.28123224  0.35033698  0.18559123    -0.71800
O49         O  0.22114263  0.34794472  0.18629719    -0.71700
O50         O  0.27882852  0.37340543  0.16361568    -0.71900
V51         V  0.24908886  0.40383937  0.18248197     1.35200
V52         V  0.25002868  0.36150176  0.17511136     1.35200
C53         C  0.28847523  0.39967543  0.16374420     0.77500
C54         C  0.21041464  0.36584150  0.19384427     0.77600
C55         C  0.29155305  0.36874885  0.19305131     0.77400
C56         C  0.20836487  0.39679338  0.16420886     0.77400
N57         N  0.04495658  0.00189276  0.93082440    -0.36600
N58         N  0.50117610  0.02812584  0.94628823    -0.57100
N59         N  0.45452346  0.00374323  0.93110009    -0.36600
N60         N  0.49300715  0.47597821  0.91581370    -0.57100
C61         C  0.06119816  0.00901764  0.94062329     0.27000
C62         C  0.05459148  0.48002597  0.92464432     0.27000
C63         C  0.43851555  0.01157009  0.94085260     0.27000
C64         C  0.43136195  0.48562556  0.92429235     0.27000
C65         C  0.02480318  0.04295524  0.94991647     0.35600
C66         C  0.47721849  0.04299745  0.95043841     0.35600
C67         C  0.01685601  0.46972733  0.90903133     0.35600
C68         C  0.46860855  0.47165676  0.90890253     0.35600
C69         C  0.08700551  0.99202969  0.94082079    -0.21800
C70         C  0.08055443  0.47284065  0.93067244    -0.21800
C71         C  0.41066422  0.99791635  0.94044552    -0.21800
C72         C  0.40406890  0.48181249  0.92995509    -0.21800
C73         C  0.01615926  0.06781069  0.95628497    -0.22900
C74         C  0.48643403  0.06741570  0.95695878    -0.22900
C75         C  0.00802107  0.46211376  0.89756708    -0.22900
C76         C  0.47711722  0.46330388  0.89747731    -0.22900
C77         C  0.05436317  0.03227488  0.94871524    -0.18300
C78         C  0.04651830  0.46916201  0.91327773    -0.18300
C79         C  0.43881307  0.47377707  0.91300024    -0.18200
C80         C  0.44755330  0.03263496  0.94950525    -0.18200
H81         H  0.10452541  0.99225550  0.94748077     0.14700
H82         H  0.09734483  0.45701704  0.92797907     0.14700
H83         H  0.39240375  0.00026139  0.94671460     0.14700
H84         H  0.38528246  0.46865833  0.92691263     0.14700
H85         H  0.03038368  0.08424155  0.96044418     0.12900
H86         H  0.47259424  0.08323641  0.96161703     0.12900
H87         H  0.02213914  0.45566948  0.89015857     0.12900
H88         H  0.46274128  0.45808335  0.88998571     0.12900
H89         H  0.02640663  0.01326908  0.92765700     0.26200
H90         H  0.47456103  0.01323633  0.92832691     0.26200
O91         O  0.27315807  0.37981755  0.85416272    -0.71700
O92         O  0.21384922  0.35478002  0.83190083    -0.72000
O93         O  0.27415859  0.35605171  0.83224102    -0.71800
O94         O  0.21300714  0.37830612  0.85388089    -0.71800
O95         O  0.21164240  0.42195568  0.84597066    -0.71800
O96         O  0.27474804  0.40016649  0.82475326    -0.71800
O97         O  0.21421120  0.39840607  0.82395057    -0.71700
O98         O  0.27151523  0.42401282  0.84675009    -0.71900
V99         V  0.24354752  0.36808356  0.84286898     1.35200
V100        V  0.24304558  0.41025892  0.83546458     1.35200
C101        C  0.28212982  0.40634804  0.85434826     0.77500
C102        C  0.20351405  0.37253042  0.82424914     0.77600
C103        C  0.28550549  0.37434070  0.82501981     0.77400
C104        C  0.20182236  0.40387347  0.85365492     0.77400
O105        O  0.03219042  0.09357753  0.70656231    -0.71700
O106        O  0.03282394  0.03186539  0.68349584    -0.72000
O107        O  0.03296113  0.09101459  0.68274242    -0.71800
O108        O  0.03218921  0.03424049  0.70749923    -0.71800
O109        O  0.48348300  0.03380983  0.70709135    -0.71800
O110        O  0.48396912  0.09076831  0.68225649    -0.71800
O111        O  0.48422587  0.03146395  0.68313737    -0.71700
O112        O  0.48301679  0.09302513  0.70616987    -0.71900
V113        V  0.03160187  0.06261641  0.69508377     1.35200
V114        V  0.48461388  0.06223719  0.69467967     1.35200
C115        C  0.50703655  0.10435511  0.71002370     0.77500
C116        C  0.50865380  0.02118174  0.67927942     0.77600
C117        C  0.50844405  0.10067497  0.67821206     0.77400
C118        C  0.50769334  0.02437541  0.71146939     0.77400
N119        N  0.51820340  0.35693452  0.59342236    -0.36600
N120        N  0.51671559  0.31087115  0.57527723    -0.57100
N121        N  0.51409572  0.26647697  0.59396572    -0.36600
N122        N  0.51228359  0.31257122  0.61203694    -0.57100
C123        C  0.51463852  0.37333625  0.58345456     0.27000
C124        C  0.51102960  0.37424829  0.60286242     0.27000
C125        C  0.50871039  0.24936348  0.58428127     0.27000
C126        C  0.50762238  0.25016565  0.60372656     0.27000
C127        C  0.52340578  0.33408698  0.56821450     0.35600
C128        C  0.52016317  0.28643821  0.56848188     0.35600
C129        C  0.51553752  0.33674067  0.61900895     0.35600
C130        C  0.51489604  0.28900102  0.61931343     0.35600
C131        C  0.50545868  0.40151888  0.58661602    -0.21800
C132        C  0.50326286  0.40211059  0.59885753    -0.21800
C133        C  0.49908071  0.22168683  0.58794430    -0.21800
C134        C  0.49854600  0.22214276  0.60021192    -0.21800
C135        C  0.53101546  0.32435835  0.55686417    -0.22900
C136        C  0.52879604  0.29415157  0.55701779    -0.22900
C137        C  0.51968891  0.32850768  0.63080539    -0.22900
C138        C  0.51935518  0.29824486  0.63099403    -0.22900
C139        C  0.52058752  0.36399492  0.57161268    -0.18300
C140        C  0.51284538  0.36613435  0.61502407    -0.18300
C141        C  0.51130864  0.25930315  0.61571840    -0.18200
C142        C  0.51394065  0.25737479  0.57226165    -0.18200
H143        H  0.50085039  0.41983051  0.58072057     0.14700
H144        H  0.49678887  0.42098533  0.60419743     0.14700
H145        H  0.49343006  0.20292322  0.58236794     0.14700
H146        H  0.49233443  0.20380915  0.60587875     0.14700
H147        H  0.53711534  0.33764005  0.54921757     0.12900
H148        H  0.53289931  0.27955217  0.54953020     0.12900
H149        H  0.52235742  0.34279458  0.63849901     0.12900
H150        H  0.52162667  0.28463832  0.63886643     0.12900
H151        H  0.52814248  0.33630806  0.59382494     0.26200
H152        H  0.52480306  0.28680680  0.59396925     0.26200
C153        C  0.50505315  0.03277368  0.51459178     0.02300
C154        C  0.49467210  0.03267314  0.50264663     0.02300
C155        C  0.48830213  0.05959261  0.49709110    -0.18200
C156        C  0.49185488  0.08659046  0.50309115     0.02300
C157        C  0.50186140  0.08672771  0.51504627     0.02300
C158        C  0.50850434  0.05986649  0.52058988    -0.18200
H159        H  0.51530532  0.06001852  0.52988496     0.04300
H160        H  0.48125168  0.05955452  0.48782366     0.08300
C161        C  0.49376186  0.28773381  0.76164408     0.86500
C162        C  0.02014259  0.29042671  0.77039449    -0.53700
C163        C  0.02067394  0.31622460  0.77674884     0.09500
C164        C  0.49363270  0.33677099  0.77403273     0.20400
C165        C  0.46585666  0.29171301  0.76958547    -0.54400
C166        C  0.46568643  0.31744531  0.77598952     0.09600
C167        C  0.49521830  0.31589345  0.75402636    -0.54000
C168        C  0.49515760  0.34135672  0.76053031     0.10100
H169        H  0.03779305  0.27410562  0.77099593     0.14600
H170        H  0.49345835  0.35767839  0.77923410     0.00400
H171        H  0.44763697  0.27601967  0.77027011     0.14900
H172        H  0.49664261  0.31569096  0.74434087     0.14700
N173        N  0.47834350  0.35272926  0.42474590    -0.36600
N174        N  0.48162007  0.30865408  0.40573212    -0.57100
N175        N  0.47961748  0.26244551  0.42338953    -0.36600
N176        N  0.47911328  0.30677962  0.44246482    -0.57100
C177        C  0.48480754  0.36992627  0.41525973     0.27000
C178        C  0.48444751  0.36879573  0.43465606     0.27000
C179        C  0.48728935  0.24648283  0.41360952     0.27000
C180        C  0.48463415  0.24539024  0.43306243     0.27000
C181        C  0.47719931  0.33294430  0.39902874     0.35600
C182        C  0.47918068  0.28528018  0.39827311     0.35600
C183        C  0.47420400  0.33011203  0.44973834     0.35600
C184        C  0.47355176  0.28243344  0.44900653     0.35600
C185        C  0.49481964  0.39732122  0.41915952    -0.21800
C186        C  0.49469582  0.39657118  0.43141352    -0.21800
C187        C  0.49684073  0.21875180  0.41713053    -0.21800
C188        C  0.49522437  0.21808590  0.42939737    -0.21800
C189        C  0.47219328  0.32503500  0.38722832    -0.22900
C190        C  0.47362381  0.29481722  0.38673378    -0.22900
C191        C  0.46566433  0.32062703  0.46097766    -0.22900
C192        C  0.46513850  0.29034698  0.46050910    -0.22900
C193        C  0.48027620  0.36220137  0.40318997    -0.18300
C194        C  0.47922902  0.35974759  0.44652838    -0.18300
C195        C  0.47847219  0.25323209  0.44506126    -0.18200
C196        C  0.48422241  0.25567440  0.40158798    -0.18200
H197        H  0.50137234  0.41600237  0.41373938     0.14700
H198        H  0.50108646  0.41457821  0.43726559     0.14700
H199        H  0.50396289  0.20070339  0.41146938     0.14700
H200        H  0.50098824  0.19949255  0.43497688     0.14700
H201        H  0.46863727  0.33954921  0.37970600     0.12900
H202        H  0.47131099  0.28149831  0.37874841     0.12900
H203        H  0.46067290  0.33409825  0.46871973     0.12900
H204        H  0.45972443  0.27581609  0.46786074     0.12900
H205        H  0.46705789  0.33266394  0.42442249     0.26200
H206        H  0.46846340  0.28248861  0.42345184     0.26200
O207        O  0.47492216  0.02882882  0.33559129    -0.71700
O208        O  0.47805215  0.08222526  0.30969109    -0.72000
O209        O  0.47844149  0.02329897  0.31179024    -0.71800
O210        O  0.47473827  0.08786999  0.33349943    -0.71800
O211        O  0.01395061  0.08755972  0.33433570    -0.71800
O212        O  0.01680859  0.02561680  0.31150755    -0.71800
O213        O  0.01686165  0.08501506  0.31049704    -0.71700
O214        O  0.01371199  0.02828274  0.33531961    -0.71900
V215        V  0.47749599  0.05554191  0.32265932     1.35200
V216        V  0.01437526  0.05662796  0.32288305     1.35200
C217        C  0.49857306  0.01926971  0.34036214     0.77500
C218        C  0.50270411  0.09279550  0.30619946     0.77600
C219        C  0.50330853  0.01245837  0.30870745     0.77400
C220        C  0.49837141  0.09887067  0.33789845     0.77400
C221        C  0.49594027  0.27528665  0.25505556     0.86500
C222        C  0.47031774  0.28098210  0.24618304    -0.53700
C223        C  0.47160576  0.30803792  0.24082854     0.09500
C224        C  0.49880448  0.32681348  0.24463649     0.20400
C225        C  0.02735641  0.28127030  0.24722503    -0.54400
C226        C  0.02979786  0.30837169  0.24199308     0.09600
C227        C  0.49434885  0.30168862  0.26370799    -0.54000
C228        C  0.49595057  0.32853080  0.25827152     0.10100
H229        H  0.45147335  0.26635986  0.24475363     0.14600
H230        H  0.49978702  0.34872544  0.24023615     0.00400
H231        H  0.04474066  0.26468823  0.24656186     0.14900
H232        H  0.49167696  0.29934881  0.27330270     0.14700
C233        C  0.50331330  0.11637172  0.29719121    -0.01300
C234        C  0.48028188  0.11878677  0.28880188    -0.09300
C235        C  0.47890309  0.14303881  0.28116158    -0.18100
C236        C  0.50026319  0.16610935  0.28192126     0.04300
C237        C  0.02054554  0.15881004  0.28726429     0.18500
C238        C  0.02041508  0.13406628  0.29475540    -0.19500
C239        C  0.04687229  0.17530832  0.28604283    -0.20800
C240        C  0.04726358  0.20083383  0.27921816    -0.19300
C241        C  0.02135606  0.21042206  0.27343241     0.19900
C242        C  0.49885892  0.19216343  0.27479167     0.02000
C243        C  0.47699024  0.19657531  0.26587425    -0.14100
C244        C  0.47583036  0.22286167  0.25940909    -0.11800
C245        C  0.49637139  0.24582255  0.26160841     0.01500
C246        C  0.02216802  0.23687685  0.26698177    -0.24000
H247        H  0.46299058  0.10201083  0.28826441     0.09500
H248        H  0.46034997  0.14349319  0.27503279     0.13100
H249        H  0.04061817  0.12813632  0.29951867     0.11800
H250        H  0.06719573  0.16868652  0.29055649     0.13000
H251        H  0.06790622  0.21335667  0.27857545     0.12000
H252        H  0.46051617  0.18005683  0.26362229     0.09100
H253        H  0.45874323  0.22454453  0.25267293     0.12400
H254        H  0.04265986  0.24973606  0.26682015     0.14300
C255        C  0.48404557  0.48655785  0.30028302    -0.01300
C256        C  0.45870662  0.46840177  0.29945699    -0.09300
C257        C  0.45884382  0.44315368  0.29225214    -0.18100
C258        C  0.98831241  0.43636286  0.28518819     0.04300
C259        C  0.01432037  0.45420217  0.28661143     0.18500
C260        C  0.01365893  0.47939981  0.29395145    -0.19500
C261        C  0.04094861  0.44664237  0.28080303    -0.20800
C262        C  0.04248941  0.42145500  0.27371637    -0.19300
C263        C  0.01758847  0.40292344  0.27242567     0.19900
C264        C  0.99011645  0.41001132  0.27817053     0.02000
C265        C  0.46288617  0.38785957  0.27791186    -0.14100
C266        C  0.46619325  0.36187019  0.27131422    -0.11800
C267        C  0.49241409  0.35648948  0.26488400     0.01500
C268        C  0.02016628  0.37698824  0.26559871    -0.24000
H269        H  0.46537990  0.99903132  0.29071107     0.09500
H270        H  0.43859640  0.43018538  0.29216933     0.13100
H271        H  0.03380540  0.49249265  0.29512961     0.11800
H272        H  0.06078426  0.46026531  0.28178263     0.13000
H273        H  0.06346803  0.41617372  0.26936742     0.12000
H274        H  0.44214417  0.39034887  0.28269932     0.09100
H275        H  0.44817342  0.34580349  0.27123392     0.12400
H276        H  0.04123404  0.37150658  0.26137691     0.14300
C277        C  0.48731236  0.23335320  0.39192082    -0.01300
C278        C  0.01090881  0.22152103  0.38869144    -0.09300
C279        C  0.01320772  0.20066677  0.37952109    -0.18100
C280        C  0.98742095  0.18985126  0.37357004     0.04300
C281        C  0.46467077  0.20140717  0.37687008     0.18500
C282        C  0.46192542  0.22213089  0.38616533    -0.19500
C283        C  0.43884518  0.19049313  0.37132414    -0.20800
C284        C  0.44077350  0.16916657  0.36240833    -0.19300
C285        C  0.46858631  0.15824579  0.35878950     0.19900
C286        C  0.98858428  0.16811840  0.36427667     0.02000
C287        C  0.01562061  0.15557345  0.36017601    -0.14100
C288        C  0.01563745  0.13350916  0.35145008    -0.11800
C289        C  0.49718731  0.12380693  0.34649438     0.01500
C290        C  0.46973388  0.13568472  0.35014524    -0.24000
H291        H  0.03104458  0.22949065  0.39303151     0.09500
H292        H  0.03547051  0.19346672  0.37732359     0.13100
H293        H  0.44000143  0.22963711  0.38896077     0.11800
H294        H  0.41693733  0.19821075  0.37402050     0.13000
H295        H  0.42030572  0.16084866  0.35842809     0.12000
H296        H  0.03716139  0.16208605  0.36360805     0.09100
H297        H  0.03687419  0.12426417  0.34871268     0.12400
H298        H  0.44911591  0.12699871  0.34641334     0.14300
C299        C  0.48303631  0.49799114  0.35034102    -0.01300
C300        C  0.45612810  0.49224399  0.35630340    -0.09300
C301        C  0.45474030  0.47121134  0.36534431    -0.18100
C302        C  0.48036080  0.45495341  0.36863817     0.04300
C303        C  0.00809091  0.45956949  0.36191717     0.18500
C304        C  0.00942893  0.48131683  0.35304999    -0.19500
C305        C  0.03404426  0.44402843  0.36482791    -0.20800
C306        C  0.03328427  0.42189463  0.37336782    -0.19300
C307        C  0.00662936  0.41501455  0.37928885     0.19900
C308        C  0.47975760  0.43239204  0.37748698     0.02000
C309        C  0.45363341  0.42481559  0.38395961    -0.14100
C310        C  0.45396535  0.40203215  0.39228806    -0.11800
C311        C  0.48014304  0.38621555  0.39435469     0.01500
C312        C  0.00650181  0.39240516  0.38779914    -0.24000
H313        H  0.43591749  0.50393818  0.35392075     0.09500
H314        H  0.43317853  0.46792451  0.36942880     0.13100
H315        H  0.03391500  0.98458451  0.34720142     0.11800
H316        H  0.05503763  0.44883583  0.36038273     0.13000
H317        H  0.05369715  0.41005836  0.37535185     0.12000
H318        H  0.43263373  0.43600612  0.38281581     0.09100
H319        H  0.43368595  0.39659851  0.39712107     0.12400
H320        H  0.02680072  0.38028367  0.38972032     0.14300
C321        C  0.47861451  0.22965301  0.45414578    -0.01300
C322        C  0.45510502  0.20935046  0.45467722    -0.09300
C323        C  0.45499616  0.18719308  0.46328729    -0.18100
C324        C  0.47873734  0.18466214  0.47158102     0.04300
C325        C  0.00189213  0.20657077  0.47112391     0.18500
C326        C  0.00065641  0.22909910  0.46258974    -0.19500
C327        C  0.02681112  0.20471752  0.47863218    -0.20800
C328        C  0.02946565  0.18161390  0.48668601    -0.19300
C329        C  0.00694864  0.16021202  0.48759809     0.19900
C330        C  0.48005801  0.16182438  0.48029533     0.02000
C331        C  0.45683303  0.14095052  0.48192044    -0.14100
C332        C  0.46025290  0.11739699  0.48976018    -0.11800
C333        C  0.48667589  0.11402978  0.49628310     0.01500
C334        C  0.01096860  0.13617920  0.49529844    -0.24000
H335        H  0.43674739  0.21072273  0.44839351     0.09500
H336        H  0.43632015  0.17211300  0.46306376     0.13100
H337        H  0.01863924  0.24516252  0.46195274     0.11800
H338        H  0.04473331  0.22083396  0.47806051     0.13000
H339        H  0.04941605  0.18029850  0.49215011     0.12000
H340        H  0.43592728  0.14196748  0.47716714     0.09100
H341        H  0.44243488  0.10122898  0.49052032     0.12400
H342        H  0.03172567  0.13392042  0.50021062     0.14300
C343        C  0.49084736  0.00528712  0.49550332    -0.01300
C344        C  0.46746819  0.50070839  0.48926508    -0.09300
C345        C  0.46314325  0.47634004  0.48184581    -0.18100
C346        C  0.48611843  0.45544890  0.48006640     0.04300
C347        C  0.01479799  0.45964504  0.48624038     0.18500
C348        C  0.01699871  0.98588466  0.49336512    -0.19500
C349        C  0.03781899  0.43912277  0.48476338    -0.20800
C350        C  0.03429224  0.41510325  0.47711777    -0.19300
C351        C  0.00776338  0.41114490  0.47066562     0.19900
C352        C  0.48310569  0.43083647  0.47214503     0.02000
C353        C  0.45734044  0.42591466  0.46504984    -0.14100
C354        C  0.45588441  0.40227873  0.45706010    -0.11800
C355        C  0.47975451  0.38268409  0.45598515     0.01500
C356        C  0.00532107  0.38737720  0.46262293    -0.24000
H357        H  0.44942506  0.51639643  0.49033052     0.09500
H358        H  0.44156942  0.47457842  0.47762895     0.13100
H359        H  0.03852304  0.99019792  0.49749010     0.11800
H360        H  0.05864990  0.94628214  0.48814399     0.13000
H361        H  0.05263558  0.39972914  0.47611216     0.12000
H362        H  0.43820783  0.44026329  0.46524098     0.09100
H363        H  0.43624498  0.39956001  0.45149326     0.12400
H364        H  0.02382629  0.37224184  0.46144619     0.14300
C365        C  0.51202606  0.23394179  0.56306153    -0.01300
C366        C  0.48527332  0.22922042  0.55691198    -0.09300
C367        C  0.48287396  0.20650449  0.54852094    -0.18100
C368        C  0.00837960  0.18754863  0.54615701     0.04300
C369        C  0.03541354  0.19315964  0.55249800     0.18500
C370        C  0.03694811  0.21603720  0.56095915    -0.19500
C371        C  0.06064287  0.17568995  0.55047100    -0.20800
C372        C  0.05951606  0.15228593  0.54243777    -0.19300
C373        C  0.03317436  0.14587084  0.53619286     0.19900
C374        C  0.00730967  0.16362866  0.53781740     0.02000
C375        C  0.47964287  0.15667426  0.53124025    -0.14100
C376        C  0.47872744  0.13218379  0.52365781    -0.11800
C377        C  0.50378688  0.11412871  0.52227271     0.01500
C378        C  0.03240474  0.12142610  0.52846671    -0.24000
H379        H  0.46606801  0.24304195  0.55871803     0.09500
H380        H  0.46148194  0.20406565  0.54420823     0.13100
H381        H  0.05749180  0.22013793  0.56584829     0.11800
H382        H  0.08130811  0.17993539  0.55524459     0.13000
H383        H  0.07932692  0.13891806  0.54118522     0.12000
H384        H  0.45937778  0.16933769  0.53190050     0.09100
H385        H  0.45807370  0.12688832  0.51905758     0.12400
H386        H  0.05205976  0.10770368  0.52741502     0.14300
C387        C  0.52213157  0.38683978  0.56217053    -0.01300
C388        C  0.04446549  0.40717751  0.56245871    -0.09300
C389        C  0.04537247  0.42991632  0.55409273    -0.18100
C390        C  0.52282230  0.43301088  0.54515855     0.04300
C391        C  0.49964517  0.41138960  0.54512977     0.18500
C392        C  0.49963463  0.38851946  0.55353830    -0.19500
C393        C  0.47612031  0.41318411  0.53694111    -0.20800
C394        C  0.47436707  0.43672440  0.52906665    -0.19300
C395        C  0.49637949  0.45874428  0.52905168     0.19900
C396        C  0.52142505  0.45678312  0.53682946     0.02000
C397        C  0.04407562  0.47868139  0.53643845    -0.14100
C398        C  0.04126064  0.50252014  0.52867406    -0.11800
C399        C  0.51063665  0.00534500  0.52142989     0.01500
C400        C  0.48921944  0.98272976  0.52179754    -0.24000
H401        H  0.06189951  0.40578918  0.56914831     0.09500
H402        H  0.06385508  0.44513039  0.55482309     0.13100
H403        H  0.48163138  0.37239965  0.55362027     0.11800
H404        H  0.45851041  0.39667405  0.53684056     0.13000
H405        H  0.45207399  0.93715083  0.52355131     0.12000
H406        H  0.06395379  0.47828496  0.54186382     0.09100
H407        H  0.05866530  0.51922770  0.52855833     0.12400
H408        H  0.46895808  0.98461939  0.51655193     0.14300
C409        C  0.50924517  0.12353481  0.66883909    -0.01300
C410        C  0.03712289  0.13541598  0.66530248    -0.09300
C411        C  0.03836182  0.15758672  0.65673605    -0.18100
C412        C  0.51190469  0.16869150  0.65134430     0.04300
C413        C  0.48391849  0.15807283  0.65563782     0.18500
C414        C  0.48283253  0.13564908  0.66427509    -0.19500
C415        C  0.45720000  0.17000060  0.65133380    -0.20800
C416        C  0.45763518  0.19232871  0.64284693    -0.19300
C417        C  0.48479138  0.20315786  0.63841171     0.19900
C418        C  0.51236911  0.19145841  0.64256527     0.02000
C419        C  0.03896343  0.20390612  0.63814948    -0.14100
C420        C  0.03818105  0.22569357  0.62941128    -0.11800
C421        C  0.51140915  0.23630372  0.62505163     0.01500
C422        C  0.48457181  0.22553636  0.62977057    -0.24000
H423        H  0.05793448  0.12703384  0.66886480     0.09500
H424        H  0.06039216  0.16497648  0.65422691     0.13100
H425        H  0.46137654  0.12781666  0.66751819     0.11800
H426        H  0.43580054  0.16204858  0.65457569     0.13000
H427        H  0.43656707  0.20112974  0.63970043     0.12000
H428        H  0.06085133  0.19674682  0.64086316     0.09100
H429        H  0.05898846  0.23429082  0.62584710     0.12400
H430        H  0.46356133  0.23442804  0.62658652     0.14300
C431        C  0.51123951  0.38972438  0.62417520    -0.01300
C432        C  0.48363343  0.39825814  0.62885193    -0.09300
C433        C  0.48208306  0.41959459  0.63785093    -0.18100
C434        C  0.50836684  0.43288394  0.64249594     0.04300
C435        C  0.03592583  0.42490095  0.63740270     0.18500
C436        C  0.03699413  0.40346095  0.62833849    -0.19500
C437        C  0.06257074  0.43788901  0.64137195    -0.20800
C438        C  0.06228557  0.45888171  0.65043890    -0.19300
C439        C  0.03533817  0.46746987  0.65574458     0.19900
C440        C  0.50799070  0.45451729  0.65181473     0.02000
C441        C  0.48131511  0.46472193  0.65718609    -0.14100
C442        C  0.48201819  0.48607645  0.66619155    -0.11800
C443        C  0.50888779  0.99776548  0.67001490     0.01500
C444        C  0.03580628  0.48876655  0.66488768    -0.24000
H445        H  0.46321398  0.38818050  0.62556003     0.09500
H446        H  0.46003117  0.42500893  0.64102422     0.13100
H447        H  0.05825877  0.39704312  0.62447822     0.11800
H448        H  0.08382495  0.43167864  0.63746372     0.13000
H449        H  0.08332881  0.46847052  0.65332837     0.12000
H450        H  0.45951465  0.45678001  0.65460564     0.09100
H451        H  0.46104142  0.99069539  0.67037718     0.12400
H452        H  0.05695991  0.49829708  0.66769271     0.14300
C453        C  0.50632294  0.12986508  0.71828882    -0.01300
C454        C  0.03293780  0.14640792  0.72056016    -0.09300
C455        C  0.03183309  0.17201408  0.72751228    -0.18100
C456        C  0.50406361  0.18173428  0.73259812     0.04300
C457        C  0.47805430  0.16417014  0.73072243     0.18500
C458        C  0.47936637  0.13868380  0.72357925    -0.19500
C459        C  0.45079169  0.17228529  0.73588904    -0.20800
C460        C  0.44875947  0.19752757  0.74291607    -0.19300
C461        C  0.47383548  0.21555110  0.74480698     0.19900
C462        C  0.50173613  0.20818666  0.73952329     0.02000
C463        C  0.02606022  0.22826547  0.74100421    -0.14100
C464        C  0.02268192  0.25378672  0.74785786    -0.11800
C465        C  0.49559566  0.25989633  0.75392581     0.01500
C466        C  0.47102437  0.24101951  0.75191603    -0.24000
H467        H  0.05396428  0.14028299  0.71645138     0.09500
H468        H  0.05256425  0.18393000  0.72858032     0.13100
H469        H  0.45921285  0.12582948  0.72204154     0.11800
H470        H  0.43089444  0.15895561  0.73451745     0.13000
H471        H  0.42734801  0.20307383  0.74685258     0.12000
H472        H  0.04750053  0.22525356  0.73679021     0.09100
H473        H  0.04150110  0.26881082  0.74862136     0.12400
H474        H  0.44931762  0.24607900  0.75557562     0.14300
C475        C  0.50710902  0.50157921  0.72095191    -0.01300
C476        C  0.03508300  0.48983397  0.72574474    -0.09300
C477        C  0.03430507  0.46565715  0.73345685    -0.18100
C478        C  0.50517557  0.45217378  0.73648200     0.04300
C479        C  0.47841698  0.46480756  0.73197517     0.18500
C480        C  0.47961625  0.48931433  0.72437258    -0.19500
C481        C  0.45060602  0.45227485  0.73470148    -0.20800
C482        C  0.44877019  0.42660607  0.74140071    -0.19300
C483        C  0.47471095  0.41274976  0.74546024     0.19900
C484        C  0.50332903  0.42554396  0.74325439     0.02000
C485        C  0.03027665  0.40951112  0.74707131    -0.14100
C486        C  0.02716815  0.38223302  0.75270892    -0.11800
C487        C  0.49780997  0.37064031  0.75505006     0.01500
C488        C  0.47223610  0.38562334  0.75139683    -0.24000
H489        H  0.05659854  0.49853090  0.72298740     0.09500
H490        H  0.05560569  0.45732035  0.73637723     0.13100
H491        H  0.45904462  0.49807906  0.72071501     0.11800
H492        H  0.43013303  0.46201503  0.73138996     0.13000
H493        H  0.42692818  0.41708265  0.74314221     0.12000
H494        H  0.05281267  0.41685797  0.74536115     0.09100
H495        H  0.04698449  0.36987256  0.75507793     0.12400
H496        H  0.45044051  0.37570640  0.75291133     0.14300
C497        C  0.44028118  0.32586869  0.78379510    -0.01300
C498        C  0.42709551  0.30488221  0.79129267    -0.09300
C499        C  0.40206297  0.31189028  0.79815897    -0.18100
C500        C  0.38901629  0.34026397  0.79763416     0.04300
C501        C  0.40280097  0.36167911  0.79014494     0.18500
C502        C  0.42831700  0.35438619  0.78338440    -0.19500
C503        C  0.39085584  0.39013400  0.78937199    -0.20800
C504        C  0.36555504  0.39786728  0.79591556    -0.19300
C505        C  0.35138035  0.37729210  0.80334398     0.19900
C506        C  0.36281669  0.34811970  0.80424564     0.02000
C507        C  0.34742468  0.32802380  0.81169246    -0.14100
C508        C  0.32222418  0.33663895  0.81813270    -0.11800
C509        C  0.31126504  0.36552040  0.81743858     0.01500
C510        C  0.32588116  0.38572837  0.80992756    -0.24000
H511        H  0.43624864  0.28282580  0.79185352     0.09500
H512        H  0.39341132  0.29450106  0.80372552     0.13100
H513        H  0.43836806  0.37067180  0.77753073     0.11800
H514        H  0.40119623  0.40656858  0.78367607     0.13000
H515        H  0.35698229  0.42011969  0.79514511     0.12000
H516        H  0.35425850  0.30543203  0.81277871     0.09100
H517        H  0.31142258  0.32048992  0.82381605     0.12400
H518        H  0.31763353  0.40813803  0.80929877     0.14300
C519        C  0.17858719  0.36384947  0.81622652    -0.01300
C520        C  0.16566892  0.38473747  0.80862593    -0.09300
C521        C  0.14022467  0.37786448  0.80194066    -0.18100
C522        C  0.12670057  0.34965512  0.80263895     0.04300
C523        C  0.14074816  0.32804566  0.80988821     0.18500
C524        C  0.16628508  0.33533040  0.81663388    -0.19500
C525        C  0.12900977  0.29939299  0.81047607    -0.20800
C526        C  0.10348045  0.29174160  0.80406276    -0.19300
C527        C  0.08863080  0.31273306  0.79712343     0.19900
C528        C  0.09978721  0.34211517  0.79642843     0.02000
C529        C  0.08321149  0.36277046  0.78971436    -0.14100
C530        C  0.05715390  0.35440753  0.78372034    -0.11800
C531        C  0.04680878  0.32523658  0.78410022     0.01500
C532        C  0.06259317  0.30452628  0.79089011    -0.24000
H533        H  0.17485901  0.40684117  0.80802998     0.09500
H534        H  0.13165009  0.39516568  0.79634001     0.13100
H535        H  0.17626098  0.31887062  0.82238341     0.11800
H536        H  0.13969042  0.28274625  0.81592070     0.13000
H537        H  0.09507094  0.26932274  0.80465794     0.12000
H538        H  0.08967088  0.38561985  0.78896522     0.09100
H539        H  0.04555312  0.37079632  0.77847681     0.12400
H540        H  0.05449331  0.28197218  0.79137637     0.14300
C541        C  0.41414637  0.46395607  0.90502544    -0.01300
C542        C  0.39393849  0.48468435  0.90060738    -0.09300
C543        C  0.37149988  0.47626737  0.89262662    -0.18100
C544        C  0.36859502  0.44659416  0.88880152     0.04300
C545        C  0.38851801  0.42543964  0.89371442     0.18500
C546        C  0.41112370  0.43429402  0.90169339    -0.19500
C547        C  0.38588983  0.39562851  0.89056841    -0.20800
C548        C  0.36398948  0.38631292  0.88257261    -0.19300
C549        C  0.34455987  0.40665624  0.87733078     0.19900
C550        C  0.34675336  0.43715781  0.88027153     0.02000
C551        C  0.32739155  0.45692223  0.87435308    -0.14100
C552        C  0.30672858  0.44678868  0.86593498    -0.11800
C553        C  0.30427525  0.41667639  0.86324380     0.01500
C554        C  0.32316334  0.39669477  0.86903135    -0.24000
H555        H  0.40126680  0.00734321  0.90384611     0.09500
H556        H  0.35681224  0.49350566  0.88962801     0.13100
H557        H  0.42658600  0.41819669  0.90526736     0.11800
H558        H  0.40087530  0.37937741  0.89432960     0.13000
H559        H  0.36250804  0.36305572  0.88034613     0.12000
H560        H  0.32795687  0.48040436  0.87587371     0.09100
H561        H  0.29237662  0.46265845  0.86157132     0.12400
H562        H  0.32161845  0.37337747  0.86689440     0.14300
C563        C  0.17821020  0.41234859  0.86230464    -0.01300
C564        C  0.16494295  0.39103055  0.86967969    -0.09300
C565        C  0.14346384  0.39890238  0.87817661    -0.18100
C566        C  0.13464272  0.42863018  0.87966905     0.04300
C567        C  0.14811403  0.45014881  0.87212480     0.18500
C568        C  0.16941347  0.44184847  0.86351816    -0.19500
C569        C  0.14052529  0.47994053  0.87328554    -0.20800
C570        C  0.11993926  0.48896539  0.88182463    -0.19300
C571        C  0.10619147  0.46840688  0.88935500     0.19900
C572        C  0.11313666  0.43787216  0.88838192     0.02000
C573        C  0.09808254  0.41805671  0.89613137    -0.14100
C574        C  0.07687982  0.42820944  0.90436284    -0.11800
C575        C  0.07036188  0.45828020  0.90520510     0.01500
C576        C  0.08518913  0.47825838  0.89776933    -0.24000
H577        H  0.17127482  0.36804915  0.86892158     0.09500
H578        H  0.13443416  0.38125230  0.88352073     0.13100
H579        H  0.17960379  0.45855400  0.85790172     0.11800
H580        H  0.15072602  0.49644425  0.86758291     0.13000
H581        H  0.11853010  0.01250508  0.88172992     0.12000
H582        H  0.10189404  0.39459695  0.89594229     0.09100
H583        H  0.06528860  0.41253893  0.91002066     0.12400
H584        H  0.08426947  0.00207024  0.89783322     0.14300
C585        C  0.31701817  0.36075335  0.20082335    -0.01300
C586        C  0.32923968  0.38104691  0.20895783    -0.09300
C587        C  0.35444077  0.37381668  0.21574703    -0.18100
C588        C  0.36835645  0.34594566  0.21453337     0.04300
C589        C  0.35544117  0.32536971  0.20639843     0.18500
C590        C  0.33010170  0.33285746  0.19972852    -0.19500
C591        C  0.36807111  0.29746051  0.20480218    -0.20800
C592        C  0.39352146  0.28946563  0.21104719    -0.19300
C593        C  0.40697158  0.30917024  0.21905056     0.19900
C594        C  0.39467110  0.33771085  0.22096963     0.02000
C595        C  0.40939594  0.35662438  0.22919331    -0.14100
C596        C  0.43502769  0.34738081  0.23528136    -0.11800
C597        C  0.44661753  0.31908313  0.23342368     0.01500
C598        C  0.43260639  0.30024626  0.22522690    -0.24000
H599        H  0.31951228  0.40276339  0.20998583     0.09500
H600        H  0.36267578  0.39058303  0.22176242     0.13100
H601        H  0.32084667  0.31694394  0.19347607     0.11800
H602        H  0.35827055  0.28171271  0.19862060     0.13000
H603        H  0.40278879  0.26767937  0.20958920     0.12000
H604        H  0.40154250  0.37855496  0.23117322     0.09100
H605        H  0.44526708  0.36210337  0.24174697     0.12400
H606        H  0.44159582  0.27834039  0.22373778     0.14300
C607        C  0.05684862  0.31738193  0.23520294    -0.01300
C608        C  0.06792037  0.34620390  0.23609820    -0.09300
C609        C  0.09426934  0.35441147  0.23026761    -0.18100
C610        C  0.11019922  0.33400313  0.22311874     0.04300
C611        C  0.09843502  0.30493962  0.22200441     0.18500
C612        C  0.07224989  0.29686671  0.22811290    -0.19500
C613        C  0.11258555  0.28421615  0.21465055    -0.20800
C614        C  0.13777131  0.29198799  0.20807687    -0.19300
C615        C  0.14980410  0.32047637  0.20890607     0.19900
C616        C  0.13674935  0.34163403  0.21671625     0.02000
C617        C  0.15061083  0.36963936  0.21763128    -0.14100
C618        C  0.17506683  0.37696676  0.21048466    -0.11800
C619        C  0.18668259  0.35666576  0.20226196     0.01500
C620        C  0.17445138  0.32815465  0.20176136    -0.24000
H621        H  0.05644933  0.36245689  0.24148032     0.09500
H622        H  0.10126074  0.37703575  0.23137009     0.13100
H623        H  0.06350889  0.27463238  0.22715244     0.11800
H624        H  0.10373154  0.26200791  0.21377749     0.13000
H625        H  0.14777612  0.27565866  0.20223418     0.12000
H626        H  0.14292482  0.38648349  0.22369559     0.09100
H627        H  0.18448557  0.39896084  0.21122681     0.12400
H628        H  0.18359218  0.31210579  0.19556684     0.14300
C629        C  0.42570566  0.04182189  0.95872913    -0.01300
C630        C  0.41803989  0.02194709  0.96773816    -0.09300
C631        C  0.39637258  0.02911024  0.97616895    -0.18100
C632        C  0.38173965  0.05671556  0.97587717     0.04300
C633        C  0.39088830  0.07751464  0.96710349     0.18500
C634        C  0.41243566  0.06975175  0.95850793    -0.19500
C635        C  0.37821796  0.10572278  0.96690433    -0.20800
C636        C  0.35599889  0.11345965  0.97503554    -0.19300
C637        C  0.34536874  0.09291190  0.98334782     0.19900
C638        C  0.35813364  0.06422206  0.98387603     0.02000
C639        C  0.34581808  0.04377065  0.99202090    -0.14100
C640        C  0.32160034  0.05128992  0.99916109    -0.11800
C641        C  0.30918356  0.07953517  0.99868903     0.01500
C642        C  0.32124407  0.10040326  0.99082494    -0.24000
H643        H  0.42387739  0.50074439  0.96767262     0.09500
H644        H  0.39176073  0.01258976  0.98281980     0.13100
H645        H  0.41878870  0.08527210  0.95159526     0.11800
H646        H  0.38537679  0.12183427  0.96035336     0.13000
H647        H  0.34643826  0.13537141  0.97458064     0.12000
H648        H  0.35350452  0.02136275  0.99276030     0.09100
H649        H  0.31175653  0.03446066  0.00479654     0.12400
H650        H  0.31110467  0.12205207  0.99023495     0.14300
C651        C  0.20051400  0.07897252  0.99470849    -0.01300
C652        C  0.20564767  0.06742112  0.98320123    -0.09300
C653        C  0.18229084  0.06301560  0.97515793    -0.18100
C654        C  0.15244060  0.06791895  0.97860531     0.04300
C655        C  0.14681105  0.07739932  0.99046054     0.18500
C656        C  0.17074535  0.08502599  0.99801309    -0.19500
C657        C  0.11739402  0.07804865  0.99479315    -0.20800
C658        C  0.09377281  0.06810753  0.98768448    -0.19300
C659        C  0.09875130  0.06002215  0.97575716     0.19900
C660        C  0.12793125  0.06199965  0.97087399     0.02000
C661        C  0.13137142  0.05837285  0.95844031    -0.14100
C662        C  0.10700276  0.05089338  0.95127536    -0.11800
C663        C  0.07893188  0.04479173  0.95633511     0.01500
C664        C  0.07494801  0.04981119  0.96864832    -0.24000
H665        H  0.22782328  0.06101416  0.98036220     0.09500
H666        H  0.18796480  0.05380731  0.96654865     0.13100
H667        H  0.16582405  0.09509925  0.00652567     0.11800
H668        H  0.11284219  0.08477593  0.00390961     0.13000
H669        H  0.07144833  0.06732765  0.99144639     0.12000
H670        H  0.15253014  0.06207213  0.95402728     0.09100
H671        H  0.11040073  0.04872023  0.94173537     0.12400
H672        H  0.05342323  0.04553061  0.97275454     0.14300
C673        C  0.31143174  0.40960976  0.15519890    -0.01300
C674        C  0.32630192  0.43645978  0.15705862    -0.09300
C675        C  0.34884978  0.44568827  0.14933453    -0.18100
C676        C  0.35721084  0.42827825  0.13939490     0.04300
C677        C  0.34135315  0.40146715  0.13732692     0.18500
C678        C  0.31889391  0.39229862  0.14526117    -0.19500
C679        C  0.34805583  0.38392602  0.12738157    -0.20800
C680        C  0.37034168  0.39237546  0.11943488    -0.19300
C681        C  0.38674824  0.41830883  0.12136111     0.19900
C682        C  0.38063897  0.43654556  0.13142993     0.02000
C683        C  0.39848807  0.46209332  0.13314970    -0.14100
C684        C  0.42105013  0.46940661  0.12509782    -0.11800
C685        C  0.42630375  0.45169023  0.11511912     0.01500
C686        C  0.40933165  0.42614784  0.11327860    -0.24000
H687        H  0.32077872  0.45030995  0.16464154     0.09500
H688        H  0.35916371  0.46661063  0.15138928     0.13100
H689        H  0.30718299  0.37164500  0.14368418     0.11800
H690        H  0.33593378  0.36355629  0.12572455     0.13000
H691        H  0.37495361  0.37839974  0.11178434     0.12000
H692        H  0.39580003  0.47676331  0.14065142     0.09100
H693        H  0.43431331  0.48914984  0.12657380     0.12400
H694        H  0.41376901  0.41245729  0.10551776     0.14300
C695        C  0.07576037  0.44279908  0.11220457    -0.01300
C696        C  0.08525382  0.46444612  0.12027287    -0.09300
C697        C  0.10690147  0.45814115  0.12883098    -0.18100
C698        C  0.11957936  0.42965243  0.12963416     0.04300
C699        C  0.10960943  0.40769965  0.12140625     0.18500
C700        C  0.08799904  0.41450203  0.11274505    -0.19500
C701        C  0.12111679  0.37906869  0.12192577    -0.20800
C702        C  0.14230564  0.37165530  0.13047403    -0.19300
C703        C  0.15265941  0.39274219  0.13866518     0.19900
C704        C  0.14158219  0.42209949  0.13834035     0.02000
C705        C  0.15305084  0.44258398  0.14674937    -0.14100
C706        C  0.17443557  0.43421259  0.15513714    -0.11800
C707        C  0.18517305  0.40525115  0.15545744     0.01500
C708        C  0.17415086  0.38462236  0.14717642    -0.24000
H709        H  0.07577578  0.48640134  0.11992880     0.09500
H710        H  0.11299115  0.47598754  0.13472870     0.13100
H711        H  0.08041146  0.39777131  0.10648336     0.11800
H712        H  0.11358398  0.36224367  0.11570398     0.13000
H713        H  0.15070415  0.34925451  0.13066518     0.12000
H714        H  0.14609163  0.46529564  0.14707439     0.09100
H715        H  0.18270045  0.45062649  0.16138118     0.12400
H716        H  0.18241363  0.36215760  0.14730227     0.14300
C717        C  0.42563459  0.02308571  0.06081432    -0.01300
C718        C  0.42690730  0.05165500  0.05613367    -0.09300
C719        C  0.40373931  0.06221587  0.04895272    -0.18100
C720        C  0.37851524  0.04434505  0.04631090     0.04300
C721        C  0.37745863  0.01546097  0.05126467     0.18500
C722        C  0.40090112  0.00518005  0.05836696    -0.19500
C723        C  0.35300671  0.99689011  0.04913271    -0.20800
C724        C  0.32924524  0.00640663  0.04223193    -0.19300
C725        C  0.32951810  0.03461203  0.03721357     0.19900
C726        C  0.35422651  0.05398077  0.03902367     0.02000
C727        C  0.35345733  0.08196524  0.03340488    -0.14100
C728        C  0.32899023  0.09032508  0.02641262    -0.11800
C729        C  0.30460659  0.07124424  0.02495483     0.01500
C730        C  0.30507922  0.04346961  0.03034666    -0.24000
H731        H  0.44593229  0.06577864  0.05804161     0.09500
H732        H  0.40612222  0.08443010  0.04566858     0.13100
H733        H  0.40003537  0.98303891  0.06202202     0.11800
H734        H  0.35216488  0.97488352  0.05289362     0.13000
H735        H  0.31049573  0.99156950  0.04080351     0.12000
H736        H  0.37145557  0.09774012  0.03417558     0.09100
H737        H  0.32899091  0.11179121  0.02217967     0.12400
H738        H  0.28638824  0.02847301  0.02900031     0.14300
C739        C  0.07959282  0.00980851  0.05696880    -0.01300
C740        C  0.08410450  0.04028742  0.05681204    -0.09300
C741        C  0.10605448  0.05262974  0.04955663    -0.18100
C742        C  0.12420031  0.03459762  0.04222940     0.04300
C743        C  0.11836907  0.00369406  0.04202576     0.18500
C744        C  0.09637605  0.99154813  0.04949354    -0.19500
C745        C  0.13467045  0.98514880  0.03445142    -0.20800
C746        C  0.15702145  0.99659021  0.02716154    -0.19300
C747        C  0.16415717  0.02667902  0.02755377     0.19900
C748        C  0.14805707  0.04609510  0.03519378     0.02000
C749        C  0.15734435  0.07595073  0.03583616    -0.14100
C750        C  0.18174642  0.08595485  0.02925509    -0.11800
C751        C  0.19687539  0.06688371  0.02156003     0.01500
C752        C  0.18801608  0.03735436  0.02065761    -0.24000
H753        H  0.07074980  0.05454267  0.06246328     0.09500
H754        H  0.10812465  0.07631222  0.04984937     0.13100
H755        H  0.09230789  0.96793310  0.04955182     0.11800
H756        H  0.13011861  0.96164073  0.03417111     0.13000
H757        H  0.16930663  0.98168846  0.02139368     0.12000
H758        H  0.14699754  0.09187186  0.04166272     0.09100
H759        H  0.18902906  0.10868055  0.03020284     0.12400
H760        H  0.20052595  0.02250959  0.01492894     0.14300
N761        N  0.45618245  0.48471995  0.08709612    -0.36600
N762        N  0.00514437  0.95479165  0.10148282    -0.57100
N763        N  0.04996251  0.97056866  0.08402377    -0.36600
N764        N  0.99645823  0.50123917  0.06958050    -0.57100
C765        C  0.44337028  0.97885067  0.09688261     0.27000
C766        C  0.44036534  0.50445405  0.08068114     0.27000
C767        C  0.06766029  0.96381164  0.09343000     0.27000
C768        C  0.05956594  0.48865207  0.07590986     0.27000
C769        C  0.47919173  0.94555839  0.10708065     0.35600
C770        C  0.02880120  0.94089827  0.10635343     0.35600
C771        C  0.47447736  0.50828853  0.06336658     0.35600
C772        C  0.01923696  0.50235625  0.06170858     0.35600
C773        C  0.41812541  0.99657027  0.09696617    -0.21800
C774        C  0.41549474  0.51336651  0.08711893    -0.21800
C775        C  0.09638983  0.97431320  0.09135629    -0.21800
C776        C  0.08851771  0.49163003  0.08019778    -0.21800
C777        C  0.48702441  0.92531147  0.11578486    -0.22900
C778        C  0.01934708  0.92234520  0.11543937    -0.22900
C779        C  0.48086560  0.51289488  0.05140480    -0.22900
C780        C  0.00884365  0.51013128  0.05049308    -0.22900
C781        C  0.45051906  0.95794042  0.10572640    -0.18300
C782        C  0.44633293  0.51238534  0.06874997    -0.18300
C783        C  0.04957066  0.49945941  0.06479759    -0.18200
C784        C  0.05887907  0.94755617  0.10363430    -0.18200
H785        H  0.40110592  0.99794542  0.10381521     0.14700
H786        H  0.39825723  0.52854385  0.08430987     0.14700
H787        H  0.11580467  0.97207357  0.09704128     0.14700
H788        H  0.10716281  0.50270623  0.07594081     0.14700
H789        H  0.47246399  0.91473374  0.12221782     0.12900
H790        H  0.03305153  0.90903370  0.12126433     0.12900
H791        H  0.46554637  0.51918299  0.04438957     0.12900
H792        H  0.02184686  0.51336994  0.04244327     0.12900
H793        H  0.47339899  0.47153399  0.08389127     0.26200
H794        H  0.02834808  0.96296933  0.08248487     0.26200
C795        C  0.22180241  0.58056466  0.00344883     0.02300
C796        C  0.21974385  0.57467012  0.01587404     0.02300
C797        C  0.24549590  0.57459232  0.02294700    -0.18200
C798        C  0.27386253  0.57733461  0.01786659     0.02300
C799        C  0.27640404  0.58324633  0.00554898     0.02300
C800        C  0.25037008  0.58696744  0.99872419    -0.18200
H801        H  0.25281793  0.59179413  0.98930850     0.04300
H802        H  0.24359435  0.56951209  0.03238672     0.04300
O803        O  0.28352282  0.91397943  0.17233399    -0.71700
O804        O  0.22526720  0.88963973  0.19478511    -0.72000
O805        O  0.28560034  0.89089468  0.19422850    -0.71800
O806        O  0.22365457  0.91261343  0.17270464    -0.71800
O807        O  0.22394667  0.86837518  0.16520984    -0.71800
O808        O  0.28606215  0.84690098  0.18650249    -0.71800
O809        O  0.22578235  0.84543831  0.18725171    -0.71700
O810        O  0.28372464  0.87005205  0.16451469    -0.71900
V811        V  0.25447165  0.90089069  0.18339435     1.35200
V812        V  0.25486083  0.85851106  0.17605427     1.35200
C813        C  0.29348863  0.89628592  0.16457631     0.77500
C814        C  0.21520187  0.86353977  0.19475695     0.77600
C815        C  0.29695136  0.86536005  0.19381214     0.77400
C816        C  0.21351526  0.89425704  0.16516232     0.77400
N817        N  0.03967746  0.50119650  0.93072682    -0.36600
N818        N  0.49556284  0.52932945  0.94567261    -0.57100
N819        N  0.44869006  0.50428679  0.93074145    -0.36600
N820        N  0.49900166  0.97533383  0.91627189    -0.57100
C821        C  0.05598234  0.50781615  0.94056711     0.27000
C822        C  0.06049038  0.98122609  0.92469102     0.27000
C823        C  0.43285106  0.51224800  0.94052183     0.27000
C824        C  0.43727937  0.98521729  0.92455727     0.27000
C825        C  0.02067930  0.54318997  0.94961343     0.35600
C826        C  0.47159938  0.54411773  0.94985613     0.35600
C827        C  0.02279237  0.96977256  0.90921409     0.35600
C828        C  0.47475381  0.97145850  0.90923957     0.35600
C829        C  0.08117768  0.48996867  0.94084844    -0.21800
C830        C  0.08679193  0.97490627  0.93064400    -0.21800
C831        C  0.40500519  0.49855975  0.94022036    -0.21800
C832        C  0.40989496  0.98131653  0.93014173    -0.21800
C833        C  0.01279380  0.56849615  0.95584875    -0.22900
C834        C  0.48079374  0.56877321  0.95623797    -0.22900
C835        C  0.01391917  0.96204790  0.89776785    -0.22900
C836        C  0.48347234  0.96335100  0.89781106    -0.22900
C837        C  0.04982327  0.53136797  0.94860570    -0.18300
C838        C  0.05253033  0.96998395  0.91336713    -0.18300
C839        C  0.44489305  0.97360733  0.91324616    -0.18200
C840        C  0.44201613  0.53344412  0.94911004    -0.18200
H841        H  0.09859141  0.48965730  0.94755074     0.14700
H842        H  0.10405756  0.95963336  0.92791121     0.14700
H843        H  0.38684153  0.50099371  0.94652874     0.14700
H844        H  0.39115102  0.96821737  0.92701974     0.14700
H845        H  0.02749925  0.58445113  0.96004428     0.12900
H846        H  0.46696775  0.58460575  0.96089361     0.12900
H847        H  0.02805173  0.95614525  0.89029003     0.12900
H848        H  0.46925007  0.95848767  0.89023513     0.12900
H849        H  0.02163553  0.51320022  0.92747352     0.26200
H850        H  0.46867526  0.51374581  0.92789441     0.26200
O851        O  0.27989490  0.88026005  0.85404744    -0.71700
O852        O  0.21957025  0.85598739  0.83214195    -0.72000
O853        O  0.27988256  0.85685043  0.83203986    -0.71800
O854        O  0.21978254  0.87911843  0.85415840    -0.71800
O855        O  0.21818891  0.92280093  0.84628748    -0.71800
O856        O  0.28062901  0.90112191  0.82471001    -0.71800
O857        O  0.21999835  0.89964754  0.82421970    -0.71700
O858        O  0.27803971  0.92464704  0.84682375    -0.71900
V859        V  0.24981042  0.86889776  0.84291512     1.35200
V860        V  0.24926071  0.91118107  0.83561347     1.35200
C861        C  0.28875733  0.90680941  0.85433061     0.77500
C862        C  0.20899531  0.87390789  0.82461291     0.77600
C863        C  0.29111254  0.87516808  0.82479833     0.77400
C864        C  0.20857698  0.90468154  0.85400076     0.77400
O865        O  0.03469546  0.59338772  0.70666970    -0.71700
O866        O  0.03408888  0.53160862  0.68362427    -0.72000
O867        O  0.03498294  0.59078534  0.68281092    -0.71800
O868        O  0.03384817  0.53403751  0.70766061    -0.71800
O869        O  0.48439569  0.53498586  0.70728347    -0.71800
O870        O  0.48673757  0.59114911  0.68223027    -0.71800
O871        O  0.48538205  0.53201413  0.68336254    -0.71700
O872        O  0.48562961  0.59415857  0.70606647    -0.71900
V873        V  0.03347605  0.56240591  0.69520015     1.35200
V874        V  0.48649408  0.56301685  0.69476244     1.35200
C875        C  0.50986912  0.60469400  0.71005520     0.77500
C876        C  0.50956201  0.52129392  0.67946821     0.77600
C877        C  0.51145360  0.60067204  0.67829059     0.77400
C878        C  0.50822281  0.52466980  0.71165902     0.77400
N879        N  0.51954807  0.85641787  0.59335083    -0.36600
N880        N  0.51793453  0.81041280  0.57515042    -0.57100
N881        N  0.51713689  0.76595636  0.59376692    -0.36600
N882        N  0.51574233  0.81194155  0.61191609    -0.57100
C883        C  0.51466681  0.87267922  0.58344092     0.27000
C884        C  0.51251894  0.87350508  0.60287604     0.27000
C885        C  0.51148453  0.74886743  0.58409641     0.27000
C886        C  0.51092847  0.74961461  0.60354651     0.27000
C887        C  0.52390784  0.83382799  0.56810231     0.35600
C888        C  0.52198651  0.78614231  0.56831856     0.35600
C889        C  0.51941876  0.83608929  0.61887274     0.35600
C890        C  0.51926045  0.78832322  0.61910181     0.35600
C891        C  0.50475813  0.90053981  0.58671361    -0.21800
C892        C  0.50347045  0.90107683  0.59897711    -0.21800
C893        C  0.50192408  0.72119373  0.58777581    -0.21800
C894        C  0.50169659  0.72161645  0.60004733    -0.21800
C895        C  0.53166424  0.82440406  0.55672694    -0.22900
C896        C  0.53032288  0.79414915  0.55685286    -0.22900
C897        C  0.52491025  0.82780132  0.63056994    -0.22900
C898        C  0.52485095  0.79751652  0.63071392    -0.22900
C899        C  0.52028719  0.86358535  0.57155107    -0.18300
C900        C  0.51557344  0.86544362  0.61499967    -0.18300
C901        C  0.51521249  0.75865564  0.61552321    -0.18200
C902        C  0.51643109  0.75694543  0.57206973    -0.18200
H903        H  0.49913555  0.91868511  0.58087580     0.14700
H904        H  0.49677620  0.91972994  0.60440011     0.14700
H905        H  0.49611650  0.70246685  0.58220497     0.14700
H906        H  0.49567654  0.70323839  0.60572124     0.14700
H907        H  0.53728730  0.83791208  0.54908746     0.12900
H908        H  0.53474203  0.77970967  0.54934332     0.12900
H909        H  0.52814909  0.84206699  0.63823576     0.12900
H910        H  0.52796455  0.78386387  0.63852530     0.12900
H911        H  0.53024138  0.83613875  0.59361953     0.26200
H912        H  0.52790798  0.78626724  0.59373119     0.26200
C913        C  0.50969627  0.53289671  0.51418024     0.02300
C914        C  0.49933227  0.53263099  0.50222266     0.02300
C915        C  0.49309778  0.55948571  0.49658403    -0.18200
C916        C  0.49636198  0.58656894  0.50251173     0.02300
C917        C  0.50656757  0.58695644  0.51444497     0.02300
C918        C  0.51335725  0.56015357  0.52005613    -0.18200
H919        H  0.52016955  0.56047017  0.52934866     0.04300
H920        H  0.48596499  0.55933112  0.48732575     0.08300
C921        C  0.50103157  0.78770241  0.76189241     0.86500
C922        C  0.02654950  0.79120998  0.77123771    -0.53700
C923        C  0.02588065  0.81721169  0.77745973     0.09500
C924        C  0.49877650  0.83699418  0.77404410     0.20400
C925        C  0.47242597  0.79121929  0.76945280    -0.54400
C926        C  0.47104761  0.81715896  0.77570513     0.09600
C927        C  0.50260992  0.81559740  0.75416902    -0.54000
C928        C  0.50140350  0.84119402  0.76054804     0.10100
H929        H  0.04435006  0.77522516  0.77231405     0.14600
H930        H  0.49782427  0.85804594  0.77913403     0.00400
H931        H  0.45470409  0.77485288  0.76989408     0.14900
H932        H  0.50470046  0.81514495  0.74450318     0.14700
N933        N  0.48273839  0.85297399  0.42476473    -0.36600
N934        N  0.48432178  0.80895687  0.40569084    -0.57100
N935        N  0.47489387  0.76274941  0.42314338    -0.36600
N936        N  0.47613359  0.80699975  0.44230362    -0.57100
C937        C  0.49196832  0.86978421  0.41551753     0.27000
C938        C  0.48771282  0.86867433  0.43487158     0.27000
C939        C  0.48177898  0.74633214  0.41338939     0.27000
C940        C  0.47814585  0.74522884  0.43282004     0.27000
C941        C  0.48383486  0.83364551  0.39897382     0.35600
C942        C  0.48004741  0.78608344  0.39810374     0.35600
C943        C  0.47229465  0.83054476  0.44958059     0.35600
C944        C  0.46910973  0.78288935  0.44878012     0.35600
C945        C  0.50271610  0.89657988  0.41976331    -0.21800
C946        C  0.50006291  0.89587541  0.43198510    -0.21800
C947        C  0.48866758  0.71784066  0.41689329    -0.21800
C948        C  0.48658034  0.71719045  0.42913763    -0.21800
C949        C  0.47962478  0.82641798  0.38705088    -0.22900
C950        C  0.47736362  0.79626100  0.38649237    -0.22900
C951        C  0.46279364  0.82138352  0.46074978    -0.22900
C952        C  0.46079364  0.79114432  0.46024883    -0.22900
C953        C  0.48894402  0.86249972  0.40331408    -0.18300
C954        C  0.47965782  0.85989268  0.44654557    -0.18300
C955        C  0.47284301  0.75346258  0.44486075    -0.18200
C956        C  0.48099624  0.75605266  0.40138329    -0.18200
H957        H  0.51123767  0.91490348  0.41457860     0.14700
H958        H  0.50613951  0.91358903  0.43803117     0.14700
H959        H  0.49472759  0.69939586  0.41124144     0.14700
H960        H  0.49079285  0.69813921  0.43468584     0.14700
H961        H  0.47877642  0.84127169  0.37950757     0.12900
H962        H  0.47449190  0.78333284  0.37842944     0.12900
H963        H  0.45843992  0.83499258  0.46851434     0.12900
H964        H  0.45452222  0.77682011  0.46756024     0.12900
H965        H  0.47034176  0.83363801  0.42407128     0.26200
H966        H  0.46579433  0.78378433  0.42312897     0.26200
O967        O  0.46014789  0.52982745  0.33619410    -0.71700
O968        O  0.46227200  0.58248491  0.31001340    -0.72000
O969        O  0.46042513  0.52328223  0.31240253    -0.71800
O970        O  0.46204124  0.58867879  0.33375509    -0.71800
O971        O  0.01132084  0.58636839  0.33475539    -0.71800
O972        O  0.01144125  0.52437850  0.31184651    -0.71800
O973        O  0.01289392  0.58359224  0.31086343    -0.71700
O974        O  0.00980699  0.52710837  0.33574678    -0.71900
V975        V  0.46216088  0.55601441  0.32307111     1.35200
V976        V  0.01042780  0.55537577  0.32328910     1.35200
C977        C  0.48400009  0.51930247  0.34043227     0.77500
C978        C  0.48689701  0.59211971  0.30604247     0.77600
C979        C  0.48446320  0.51218562  0.30850381     0.77400
C980        C  0.48652892  0.59860420  0.33779281     0.77400
C981        C  0.50434010  0.77461661  0.25552576     0.86500
C982        C  0.47802646  0.78036599  0.24703979    -0.53700
C983        C  0.47867323  0.80724526  0.24150682     0.09500
C984        C  0.50629879  0.82600254  0.24500800     0.20400
C985        C  0.03180908  0.78054071  0.24779488    -0.54400
C986        C  0.03313100  0.80735756  0.24229332     0.09600
C987        C  0.50461449  0.80095508  0.26418141    -0.54000
C988        C  0.50562661  0.82779455  0.25873559     0.10100
H989        H  0.45991120  0.76461088  0.24586617     0.14600
H990        H  0.50750586  0.84784126  0.24058410     0.00400
H991        H  0.04959785  0.76457239  0.24682473     0.14900
H992        H  0.50386487  0.79853221  0.27382711     0.14700
C993        C  0.48766815  0.61540837  0.29689967    -0.01300
C994        C  0.46186574  0.63166868  0.29443566    -0.09300
C995        C  0.46319531  0.65646258  0.28712714    -0.18100
C996        C  0.49056264  0.66574397  0.28202379     0.04300
C997        C  0.01901538  0.65178969  0.28527273     0.18500
C998        C  0.01771739  0.62710793  0.29278766    -0.19500
C999        C  0.04681326  0.66186733  0.28120533    -0.20800
C1000       C  0.04880167  0.68698017  0.27415751    -0.19300
C1001       C  0.02312274  0.70305084  0.27128275     0.19900
C1002       C  0.49350661  0.69231493  0.27534112     0.02000
C1003       C  0.47029760  0.71320160  0.27442435    -0.14100
C1004       C  0.47439564  0.73931906  0.26810647    -0.11800
C1005       C  0.50135125  0.74541171  0.26215980     0.01500
C1006       C  0.02598242  0.72917221  0.26466883    -0.24000
H1007       H  0.44069014  0.62586905  0.29852562     0.09500
H1008       H  0.44246092  0.66794876  0.28567920     0.13100
H1009       H  0.03826619  0.61646271  0.29553198     0.11800
H1010       H  0.06717216  0.65033335  0.28353772     0.13000
H1011       H  0.07066607  0.69424971  0.27115603     0.12000
H1012       H  0.44901514  0.71048016  0.27881070     0.09100
H1013       H  0.45622118  0.75504883  0.26787410     0.12400
H1014       H  0.04815634  0.73630200  0.26213569     0.14300
C1015       C  0.50446519  0.98650469  0.30074592    -0.01300
C1016       C  0.48262132  0.98259169  0.29195725    -0.09300
C1017       C  0.48271396  0.95765153  0.28462790    -0.18100
C1018       C  0.99592292  0.93753258  0.28437216     0.04300
C1019       C  0.02188801  0.94726287  0.29059343     0.18500
C1020       C  0.02095272  0.97273035  0.29777021    -0.19500
C1021       C  0.04852260  0.93123896  0.28980265    -0.20800
C1022       C  0.04986544  0.90538814  0.28311383    -0.19300
C1023       C  0.02460672  0.89490227  0.27704996     0.19900
C1024       C  0.99728891  0.91092307  0.27749188     0.02000
C1025       C  0.48518307  0.90435204  0.26924761    -0.14100
C1026       C  0.48586808  0.87814792  0.26270900    -0.11800
C1027       C  0.50606955  0.85585408  0.26553209     0.01500
C1028       C  0.02638694  0.86824023  0.27064960    -0.24000
H1029       H  0.43884245  0.47337938  0.30461404     0.09500
H1030       H  0.46504797  0.95624673  0.27811629     0.13100
H1031       H  0.04081621  0.97959949  0.30260557     0.11800
H1032       H  0.06840468  0.93859367  0.29449904     0.13000
H1033       H  0.07074929  0.89334716  0.28277822     0.12000
H1034       H  0.46895106  0.92042218  0.26646928     0.09100
H1035       H  0.46979651  0.87499031  0.25564989     0.12400
H1036       H  0.04717729  0.85599535  0.27037408     0.14300
C1037       C  0.48291954  0.73371652  0.39168220    -0.01300
C1038       C  0.01056563  0.72207267  0.38859659    -0.09300
C1039       C  0.01263245  0.70093513  0.37953459    -0.18100
C1040       C  0.98676139  0.69053160  0.37353424     0.04300
C1041       C  0.45883641  0.70364845  0.37637643     0.18500
C1042       C  0.45711354  0.72449348  0.38566664    -0.19500
C1043       C  0.43259353  0.69465030  0.37059856    -0.20800
C1044       C  0.43342006  0.67318017  0.36171748    -0.19300
C1045       C  0.46052414  0.66022274  0.35836113     0.19900
C1046       C  0.98766353  0.66842061  0.36439321     0.02000
C1047       C  0.01450068  0.65507552  0.36047988    -0.14100
C1048       C  0.01418971  0.63268361  0.35188291    -0.11800
C1049       C  0.48705150  0.62364022  0.34634782     0.01500
C1050       C  0.46041636  0.63754743  0.34977185    -0.24000
H1051       H  0.03074294  0.72963411  0.39302278     0.09500
H1052       H  0.03477033  0.69313893  0.37747876     0.13100
H1053       H  0.43567090  0.73359031  0.38827238     0.11800
H1054       H  0.41118491  0.70395994  0.37309712     0.13000
H1055       H  0.41261636  0.66634489  0.35756201     0.12000
H1056       H  0.03610728  0.66121753  0.36395674     0.09100
H1057       H  0.03522811  0.62281189  0.34926431     0.12400
H1058       H  0.43938594  0.63038930  0.34588601     0.14300
C1059       C  0.49700148  0.99748647  0.35009722    -0.01300
C1060       C  0.46978122  0.99205743  0.35586535    -0.09300
C1061       C  0.46766072  0.97092041  0.36483029    -0.18100
C1062       C  0.49284134  0.95419018  0.36826627     0.04300
C1063       C  0.01187558  0.95907721  0.36087370     0.18500
C1064       C  0.01311027  0.98069290  0.35193468    -0.19500
C1065       C  0.03753887  0.94271048  0.36344821    -0.20800
C1066       C  0.03689290  0.92085310  0.37211969    -0.19300
C1067       C  0.01068135  0.91510948  0.37854176     0.19900
C1068       C  0.49154069  0.93197588  0.37725147     0.02000
C1069       C  0.46516300  0.92546500  0.38373646    -0.14100
C1070       C  0.46473917  0.90318209  0.39226552    -0.11800
C1071       C  0.49039229  0.88676360  0.39457118     0.01500
C1072       C  0.01064987  0.89280666  0.38721769    -0.24000
H1073       H  0.44990258  0.00423507  0.35343481     0.09500
H1074       H  0.44588274  0.96803237  0.36877187     0.13100
H1075       H  0.03050775  0.48589464  0.34861945     0.11800
H1076       H  0.05821985  0.94668315  0.35864996     0.13000
H1077       H  0.05707093  0.90838837  0.37383436     0.12000
H1078       H  0.44448797  0.93713007  0.38246298     0.09100
H1079       H  0.44417613  0.89848699  0.39703386     0.12400
H1080       H  0.03065324  0.87997165  0.38884467     0.14300
C1081       C  0.47390273  0.73009240  0.45407031    -0.01300
C1082       C  0.45104331  0.70910931  0.45492121    -0.09300
C1083       C  0.45265069  0.68655207  0.46336019    -0.18100
C1084       C  0.47748199  0.68430340  0.47115720     0.04300
C1085       C  0.00312566  0.70675512  0.47066157     0.18500
C1086       C  0.00097491  0.72955059  0.46225293    -0.19500
C1087       C  0.02835503  0.70528885  0.47802562    -0.20800
C1088       C  0.03179543  0.68214925  0.48602531    -0.19300
C1089       C  0.00979148  0.66025573  0.48703159     0.19900
C1090       C  0.48050594  0.66124263  0.47972615     0.02000
C1091       C  0.45807005  0.63974352  0.48171679    -0.14100
C1092       C  0.46288476  0.61637714  0.48953879    -0.11800
C1093       C  0.48999051  0.61375328  0.49567800     0.01500
C1094       C  0.01444043  0.63639970  0.49479677    -0.24000
H1095       H  0.43198412  0.71012978  0.44896836     0.09500
H1096       H  0.43441309  0.67094448  0.46339666     0.13100
H1097       H  0.01857250  0.74601338  0.46158305     0.11800
H1098       H  0.04586553  0.72183067  0.47741577     0.13000
H1099       H  0.05191224  0.68126255  0.49140684     0.12000
H1100       H  0.43669057  0.64018740  0.47729211     0.09100
H1101       H  0.44556468  0.59979426  0.49060713     0.12400
H1102       H  0.03526975  0.63466465  0.49969715     0.14300
C1103       C  0.49468264  0.50517847  0.49518495    -0.01300
C1104       C  0.46344233  0.99944949  0.48993094    -0.09300
C1105       C  0.45984395  0.97487957  0.48252700    -0.18100
C1106       C  0.48385638  0.95536236  0.48033867     0.04300
C1107       C  0.01319984  0.96131054  0.48580835     0.18500
C1108       C  0.01932366  0.48425166  0.49373796    -0.19500
C1109       C  0.03734611  0.94240073  0.48378845    -0.20800
C1110       C  0.03455376  0.91848527  0.47605776    -0.19300
C1111       C  0.00758211  0.91294279  0.47011247     0.19900
C1112       C  0.48158356  0.93060841  0.47242739     0.02000
C1113       C  0.45506229  0.92333071  0.46613844    -0.14100
C1114       C  0.45436105  0.89984167  0.45803751    -0.11800
C1115       C  0.47980160  0.88274281  0.45605552     0.01500
C1116       C  0.00582161  0.88930969  0.46199357    -0.24000
H1117       H  0.44469026  0.01416616  0.49128034     0.09500
H1118       H  0.43810141  0.97203022  0.47854493     0.13100
H1119       H  0.04063735  0.48744312  0.49818419     0.11800
H1120       H  0.05879929  0.44177334  0.48949784     0.13000
H1121       H  0.05377081  0.90441858  0.47460360     0.12000
H1122       H  0.43462901  0.93560298  0.46712191     0.09100
H1123       H  0.43400552  0.89529722  0.45310699     0.12400
H1124       H  0.02519223  0.87554556  0.46035366     0.14300
C1125       C  0.51485148  0.73353888  0.56284386    -0.01300
C1126       C  0.48862650  0.72941828  0.55627479    -0.09300
C1127       C  0.48660939  0.70690012  0.54777909    -0.18100
C1128       C  0.01122894  0.68735776  0.54608661     0.04300
C1129       C  0.03791499  0.69265098  0.55270154     0.18500
C1130       C  0.03924246  0.71558496  0.56114228    -0.19500
C1131       C  0.06303199  0.67485694  0.55094660    -0.20800
C1132       C  0.06217769  0.65153862  0.54287003    -0.19300
C1133       C  0.03620948  0.64548660  0.53632526     0.19900
C1134       C  0.01041065  0.66344707  0.53772967     0.02000
C1135       C  0.48386825  0.65696446  0.53052362    -0.14100
C1136       C  0.48322104  0.63254524  0.52289583    -0.11800
C1137       C  0.50831313  0.61446439  0.52162824     0.01500
C1138       C  0.03575689  0.62120632  0.52850939    -0.24000
H1139       H  0.46953690  0.74358165  0.55782020     0.09500
H1140       H  0.46563880  0.70498525  0.54310966     0.13100
H1141       H  0.05951885  0.71942734  0.56623843     0.11800
H1142       H  0.08342308  0.67884048  0.55593913     0.13000
H1143       H  0.08191901  0.63797598  0.54180519     0.12000
H1144       H  0.46356490  0.66959161  0.53110654     0.09100
H1145       H  0.46270313  0.62728844  0.51819455     0.12400
H1146       H  0.05536944  0.60735545  0.52762504     0.14300
C1147       C  0.52099047  0.88652978  0.56215996    -0.01300
C1148       C  0.04477840  0.90816349  0.56243679    -0.09300
C1149       C  0.04493874  0.93098022  0.55409621    -0.18100
C1150       C  0.52032186  0.93285978  0.54525923     0.04300
C1151       C  0.49741969  0.91095989  0.54533710     0.18500
C1152       C  0.49809156  0.88797957  0.55369024    -0.19500
C1153       C  0.47353889  0.91256584  0.53730445    -0.20800
C1154       C  0.47123683  0.93612400  0.52945859    -0.19300
C1155       C  0.49303254  0.95835164  0.52932391     0.19900
C1156       C  0.51834928  0.95664084  0.53697210     0.02000
C1157       C  0.04255216  0.97927102  0.53625840    -0.14100
C1158       C  0.03900947  0.00304327  0.52851464    -0.11800
C1159       C  0.51472067  0.50553696  0.52118200     0.01500
C1160       C  0.49302909  0.48316081  0.52150665    -0.24000
H1161       H  0.06206991  0.90747490  0.56920453     0.09500
H1162       H  0.06268669  0.94699647  0.55494080     0.13100
H1163       H  0.48034053  0.87159407  0.55385703     0.11800
H1164       H  0.45611551  0.89586230  0.53729356     0.13000
H1165       H  0.45543456  0.43792006  0.52304820     0.12000
H1166       H  0.06259920  0.97925039  0.54158965     0.09100
H1167       H  0.05602489  0.02013475  0.52834847     0.12400
H1168       H  0.47292021  0.48523014  0.51618135     0.14300
C1169       C  0.51263181  0.62340024  0.66887048    -0.01300
C1170       C  0.03911852  0.63486006  0.66513015    -0.09300
C1171       C  0.04029182  0.65692563  0.65650666    -0.18100
C1172       C  0.51554122  0.66817075  0.65121708     0.04300
C1173       C  0.48750623  0.65711480  0.65526310     0.18500
C1174       C  0.48630824  0.63485617  0.66395442    -0.19500
C1175       C  0.46082622  0.66851027  0.65069218    -0.20800
C1176       C  0.46134076  0.69088144  0.64222999    -0.19300
C1177       C  0.48854751  0.70212050  0.63801960     0.19900
C1178       C  0.51609198  0.69073163  0.64235010     0.02000
C1179       C  0.04077184  0.70293621  0.63777256    -0.14100
C1180       C  0.03995984  0.72494484  0.62911991    -0.11800
C1181       C  0.51529588  0.73562123  0.62484659     0.01500
C1182       C  0.48841021  0.72458950  0.62942100    -0.24000
H1183       H  0.05994404  0.62664286  0.66874165     0.09500
H1184       H  0.06229397  0.66445458  0.65402303     0.13100
H1185       H  0.46478881  0.62665169  0.66697507     0.11800
H1186       H  0.43938974  0.66021199  0.65375122     0.13000
H1187       H  0.44030014  0.69937757  0.63891948     0.12000
H1188       H  0.06265544  0.69543015  0.64033363     0.09100
H1189       H  0.06075372  0.73338286  0.62548279     0.12400
H1190       H  0.46742016  0.73331486  0.62613904     0.14300
C1191       C  0.51350297  0.88889825  0.62420806    -0.01300
C1192       C  0.48585891  0.89591041  0.62925789    -0.09300
C1193       C  0.48379936  0.91732679  0.63821118    -0.18100
C1194       C  0.50960985  0.93226499  0.64244264     0.04300
C1195       C  0.03705528  0.92513722  0.63729847     0.18500
C1196       C  0.03858494  0.90363047  0.62826714    -0.19500
C1197       C  0.06343204  0.93858411  0.64130698    -0.20800
C1198       C  0.06267822  0.95965460  0.65034155    -0.19300
C1199       C  0.03551225  0.96790738  0.65555809     0.19900
C1200       C  0.50871537  0.95405029  0.65170793     0.02000
C1201       C  0.48191713  0.96291851  0.65737333    -0.14100
C1202       C  0.48209861  0.98443144  0.66633014    -0.11800
C1203       C  0.50921359  0.49794607  0.67019819     0.01500
C1204       C  0.03549553  0.98932920  0.66465537    -0.24000
H1205       H  0.46579482  0.88460877  0.62627789     0.09500
H1206       H  0.46174864  0.92148098  0.64168749     0.13100
H1207       H  0.05999297  0.89754175  0.62444570     0.11800
H1208       H  0.08484086  0.93266606  0.63745919     0.13000
H1209       H  0.08352466  0.96959232  0.65326706     0.12000
H1210       H  0.46039866  0.95380610  0.65505452     0.09100
H1211       H  0.46104555  0.49341548  0.67000304     0.12400
H1212       H  0.05645703  0.99917895  0.66751075     0.14300
C1213       C  0.50964617  0.63037511  0.71822250    -0.01300
C1214       C  0.03712210  0.64352035  0.72215881    -0.09300
C1215       C  0.03685655  0.66897904  0.72922801    -0.18100
C1216       C  0.50905258  0.68221525  0.73255335     0.04300
C1217       C  0.48193573  0.66899101  0.72857646     0.18500
C1218       C  0.48247937  0.64343160  0.72149448    -0.19500
C1219       C  0.45437122  0.68143352  0.73161759    -0.20800
C1220       C  0.45308181  0.70667295  0.73865749    -0.19300
C1221       C  0.47933581  0.72027744  0.74271744     0.19900
C1222       C  0.50771259  0.70860073  0.73954844     0.02000
C1223       C  0.03367558  0.72488982  0.74314941    -0.14100
C1224       C  0.03113734  0.75021865  0.75019332    -0.11800
C1225       C  0.50307275  0.75979204  0.75428366     0.01500
C1226       C  0.47728281  0.74563168  0.74990222    -0.24000
H1227       H  0.05844470  0.63439054  0.71946298     0.09500
H1228       H  0.05834316  0.67780226  0.73177880     0.13100
H1229       H  0.46158565  0.63390441  0.71839080     0.11800
H1230       H  0.43362938  0.67146115  0.72859240     0.13000
H1231       H  0.43136651  0.71560400  0.74095289     0.12000
H1232       H  0.05592710  0.71899565  0.74034838     0.09100
H1233       H  0.05130441  0.76245092  0.75230752     0.12400
H1234       H  0.45539050  0.75447957  0.75187263     0.14300
C1235       C  0.50758996  0.00123613  0.72073714    -0.01300
C1236       C  0.03404898  0.99090590  0.72580868    -0.09300
C1237       C  0.03407177  0.96666617  0.73347673    -0.18100
C1238       C  0.50776067  0.95169913  0.73618264     0.04300
C1239       C  0.48042020  0.96406972  0.73212777     0.18500
C1240       C  0.48058278  0.98862351  0.72453538    -0.19500
C1241       C  0.45305271  0.95126030  0.73531471    -0.20800
C1242       C  0.45220071  0.92563188  0.74206768    -0.19300
C1243       C  0.47870043  0.91205448  0.74568664     0.19900
C1244       C  0.50692804  0.92503602  0.74294509     0.02000
C1245       C  0.03251108  0.91114619  0.74754722    -0.14100
C1246       C  0.03076483  0.88416575  0.75349203    -0.11800
C1247       C  0.50324489  0.87032125  0.75493660     0.01500
C1248       C  0.47714650  0.88503966  0.75173361    -0.24000
H1249       H  0.05513770  0.00153067  0.72369698     0.09500
H1250       H  0.05547925  0.96018744  0.73698866     0.13100
H1251       H  0.45958147  0.99719547  0.72120546     0.11800
H1252       H  0.43214688  0.96079227  0.73235189     0.13000
H1253       H  0.43066225  0.91593042  0.74420566     0.12000
H1254       H  0.05454956  0.92048017  0.74650875     0.09100
H1255       H  0.05107167  0.87389175  0.75668886     0.12400
H1256       H  0.45563120  0.87498186  0.75367320     0.14300
C1257       C  0.44481232  0.82535330  0.78312449    -0.01300
C1258       C  0.43087388  0.80420292  0.79032938    -0.09300
C1259       C  0.40560902  0.81127535  0.79705404    -0.18100
C1260       C  0.39311588  0.83991733  0.79670900     0.04300
C1261       C  0.40741017  0.86138167  0.78940150     0.18500
C1262       C  0.43310760  0.85399873  0.78276452    -0.19500
C1263       C  0.39592383  0.89004831  0.78875608    -0.20800
C1264       C  0.37075155  0.89801681  0.79534026    -0.19300
C1265       C  0.35626981  0.87749058  0.80270034     0.19900
C1266       C  0.36710395  0.84805078  0.80339209     0.02000
C1267       C  0.35145777  0.82803102  0.81078332    -0.14100
C1268       C  0.32669309  0.83697683  0.81741546    -0.11800
C1269       C  0.31638049  0.86612751  0.81697280     0.01500
C1270       C  0.33115274  0.88625861  0.80946657    -0.24000
H1271       H  0.43972839  0.78202250  0.79084556     0.09500
H1272       H  0.39643457  0.79375980  0.80241994     0.13100
H1273       H  0.44365785  0.87042086  0.77711877     0.11800
H1274       H  0.40661149  0.90650721  0.78317318     0.13000
H1275       H  0.36261813  0.92045734  0.79470579     0.12000
H1276       H  0.35782232  0.80526233  0.81171438     0.09100
H1277       H  0.31573684  0.82085228  0.82306276     0.12400
H1278       H  0.32339380  0.90886611  0.80901354     0.14300
C1279       C  0.18337851  0.86555289  0.81690528    -0.01300
C1280       C  0.17020947  0.88648524  0.80939363    -0.09300
C1281       C  0.14420471  0.87981327  0.80301701    -0.18100
C1282       C  0.13040316  0.85176944  0.80394442     0.04300
C1283       C  0.14454243  0.83020645  0.81118774     0.18500
C1284       C  0.17060380  0.83729151  0.81761634    -0.19500
C1285       C  0.13249588  0.80172844  0.81203553    -0.20800
C1286       C  0.10679830  0.79406588  0.80574863    -0.19300
C1287       C  0.09209905  0.81488893  0.79868238     0.19900
C1288       C  0.10329685  0.84423393  0.79787144     0.02000
C1289       C  0.08673304  0.86475317  0.79108120    -0.14100
C1290       C  0.06097968  0.85612102  0.78492739    -0.11800
C1291       C  0.05095611  0.82683546  0.78525319     0.01500
C1292       C  0.06635485  0.80644459  0.79232849    -0.24000
H1293       H  0.17969065  0.90843376  0.80861387     0.09500
H1294       H  0.13548696  0.89707926  0.79743223     0.13100
H1295       H  0.18069522  0.82083576  0.82333626     0.11800
H1296       H  0.14319208  0.78516089  0.81751526     0.13000
H1297       H  0.09828038  0.77170848  0.80646292     0.12000
H1298       H  0.09311414  0.88762521  0.79032157     0.09100
H1299       H  0.04951739  0.87231593  0.77953917     0.12400
H1300       H  0.05837031  0.78385316  0.79283367     0.14300
C1301       C  0.42035763  0.96387379  0.90519850    -0.01300
C1302       C  0.39970601  0.98448843  0.90102705    -0.09300
C1303       C  0.37723929  0.97610887  0.89305776    -0.18100
C1304       C  0.37479952  0.94660425  0.88897348     0.04300
C1305       C  0.39535790  0.92558916  0.89355651     0.18500
C1306       C  0.41787352  0.93438018  0.90157483    -0.19500
C1307       C  0.39349790  0.89598920  0.89002814    -0.20800
C1308       C  0.37177744  0.88675243  0.88194773    -0.19300
C1309       C  0.35163185  0.90695834  0.87706784     0.19900
C1310       C  0.35290527  0.93722822  0.88046005     0.02000
C1311       C  0.33256581  0.95684720  0.87500193    -0.14100
C1312       C  0.31206847  0.94684416  0.86650146    -0.11800
C1313       C  0.31074649  0.91699070  0.86328686     0.01500
C1314       C  0.33041403  0.89710062  0.86868490    -0.24000
H1315       H  0.39586569  0.50765864  0.90322359     0.09500
H1316       H  0.36223681  0.99327267  0.89024754     0.13100
H1317       H  0.43372343  0.91837298  0.90493961     0.11800
H1318       H  0.40900824  0.87985756  0.89352616     0.13000
H1319       H  0.37095758  0.86367306  0.87938834     0.12000
H1320       H  0.33217270  0.98012928  0.87696067     0.09100
H1321       H  0.29695031  0.96258549  0.86248657     0.12400
H1322       H  0.32960635  0.87397318  0.86617576     0.14300
C1323       C  0.18508174  0.91311103  0.86271572    -0.01300
C1324       C  0.17255649  0.89197443  0.87037981    -0.09300
C1325       C  0.15097661  0.89985964  0.87884240    -0.18100
C1326       C  0.14126894  0.92941272  0.87998928     0.04300
C1327       C  0.15398842  0.95072248  0.87214998     0.18500
C1328       C  0.17545224  0.94241756  0.86361380    -0.19500
C1329       C  0.14543139  0.98032622  0.87292036    -0.20800
C1330       C  0.12459999  0.98938440  0.88135524    -0.19300
C1331       C  0.11161921  0.96904925  0.88919120     0.19900
C1332       C  0.11957344  0.93869426  0.88862525     0.02000
C1333       C  0.10531803  0.91909811  0.89669592    -0.14100
C1334       C  0.08395359  0.92928181  0.90485778    -0.11800
C1335       C  0.07644656  0.95917978  0.90530186     0.01500
C1336       C  0.09042855  0.97894587  0.89752418    -0.24000
H1337       H  0.17952624  0.86913640  0.86986884     0.09500
H1338       H  0.14252104  0.88236886  0.88441639     0.13100
H1339       H  0.18501422  0.95898206  0.85776059     0.11800
H1340       H  0.15503990  0.99666317  0.86698226     0.13000
H1341       H  0.11463261  0.51223100  0.88250952     0.12000
H1342       H  0.10993747  0.89578219  0.89683175     0.09100
H1343       H  0.07303514  0.91375783  0.91078649     0.12400
H1344       H  0.07977509  0.50153227  0.89838350     0.14300
C1345       C  0.32302015  0.85750417  0.20131828    -0.01300
C1346       C  0.33796964  0.87909218  0.20805971    -0.09300
C1347       C  0.36395167  0.87223622  0.21440381    -0.18100
C1348       C  0.37584008  0.84333950  0.21423513     0.04300
C1349       C  0.35992437  0.82129168  0.20775175     0.18500
C1350       C  0.33404542  0.82857004  0.20131211    -0.19500
C1351       C  0.36993129  0.79206621  0.20771246    -0.20800
C1352       C  0.39524419  0.78412120  0.21411910    -0.19300
C1353       C  0.41164225  0.80534311  0.22047034     0.19900
C1354       C  0.40266252  0.83538421  0.22037592     0.02000
C1355       C  0.42120988  0.85612681  0.22627926    -0.14100
C1356       C  0.44660071  0.84714132  0.23255603    -0.11800
C1357       C  0.45407072  0.81722097  0.23344185     0.01500
C1358       C  0.43690155  0.79658764  0.22699558    -0.24000
H1359       H  0.32985700  0.90158095  0.20827502     0.09500
H1360       H  0.37411840  0.88996501  0.21941762     0.13100
H1361       H  0.32252951  0.81159651  0.19622143     0.11800
H1362       H  0.35786933  0.77513607  0.20281109     0.13000
H1363       H  0.40210505  0.76120384  0.21406995     0.12000
H1364       H  0.41681091  0.87949465  0.22612883     0.09100
H1365       H  0.45992721  0.86385718  0.23689972     0.12400
H1366       H  0.44312559  0.77350459  0.22703405     0.14300
C1367       C  0.05963539  0.81672677  0.23531951    -0.01300
C1368       C  0.07139341  0.84517311  0.23666659    -0.09300
C1369       C  0.09769796  0.85338881  0.23077893    -0.18100
C1370       C  0.11291865  0.83328878  0.22322869     0.04300
C1371       C  0.10040468  0.80461869  0.22173366     0.18500
C1372       C  0.07419347  0.79661739  0.22780412    -0.19500
C1373       C  0.11398798  0.78409049  0.21413507    -0.20800
C1374       C  0.13955718  0.79156555  0.20777134    -0.19300
C1375       C  0.15242147  0.81960066  0.20899146     0.19900
C1376       C  0.13969206  0.84070154  0.21691883     0.02000
C1377       C  0.15417989  0.86836100  0.21806501    -0.14100
C1378       C  0.17922886  0.87527020  0.21115981    -0.11800
C1379       C  0.19079954  0.85487818  0.20295680     0.01500
C1380       C  0.17766676  0.82683020  0.20212914    -0.24000
H1381       H  0.06061385  0.86092400  0.24253948     0.09500
H1382       H  0.10542432  0.87564594  0.23227200     0.13100
H1383       H  0.06492065  0.77465334  0.22660469     0.11800
H1384       H  0.10453159  0.76220046  0.21298064     0.13000
H1385       H  0.14925484  0.77533596  0.20180120     0.12000
H1386       H  0.14653664  0.88525188  0.22411690     0.09100
H1387       H  0.18918719  0.89699306  0.21207974     0.12400
H1388       H  0.18660674  0.81078377  0.19588643     0.14300
C1389       C  0.42049779  0.54233444  0.95850356    -0.01300
C1390       C  0.41323372  0.52218396  0.96746549    -0.09300
C1391       C  0.39185638  0.52903232  0.97605365    -0.18100
C1392       C  0.37712024  0.55659211  0.97597450     0.04300
C1393       C  0.38590840  0.57768406  0.96725652     0.18500
C1394       C  0.40716612  0.57024133  0.95850231    -0.19500
C1395       C  0.37310408  0.60583689  0.96724936    -0.20800
C1396       C  0.35098461  0.61318676  0.97548067    -0.19300
C1397       C  0.34064348  0.59232215  0.98372091     0.19900
C1398       C  0.35368210  0.56373852  0.98410471     0.02000
C1399       C  0.34175621  0.54301629  0.99223140    -0.14100
C1400       C  0.31753962  0.55012062  0.99944229    -0.11800
C1401       C  0.30473015  0.57819545  0.99905066     0.01500
C1402       C  0.31650023  0.59937613  0.99125496    -0.24000
H1403       H  0.42861304  0.00048868  0.96810991     0.09500
H1404       H  0.38751316  0.51228554  0.98263903     0.13100
H1405       H  0.41319658  0.58597368  0.95162281     0.11800
H1406       H  0.38000974  0.62217487  0.96074751     0.13000
H1407       H  0.34124396  0.63503501  0.97515048     0.12000
H1408       H  0.34973776  0.52069774  0.99290164     0.09100
H1409       H  0.30796094  0.53307653  0.00504411     0.12400
H1410       H  0.30608242  0.62090873  0.99074522     0.14300
C1411       C  0.19600503  0.57649051  0.99496159    -0.01300
C1412       C  0.20122442  0.56445477  0.98354733    -0.09300
C1413       C  0.17795383  0.55991196  0.97547406    -0.18100
C1414       C  0.14809002  0.56528696  0.97879492     0.04300
C1415       C  0.14234965  0.57527086  0.99057461     0.18500
C1416       C  0.16623653  0.58288452  0.99815733    -0.19500
C1417       C  0.11284958  0.57654041  0.99479409    -0.20800
C1418       C  0.08920907  0.56684554  0.98763891    -0.19300
C1419       C  0.09430819  0.55831576  0.97576908     0.19900
C1420       C  0.12365644  0.55950567  0.97100165     0.02000
C1421       C  0.12733791  0.55535675  0.95860402    -0.14100
C1422       C  0.10299043  0.54825484  0.95136626    -0.11800
C1423       C  0.07461043  0.54310827  0.95631673     0.01500
C1424       C  0.07043478  0.54853055  0.96859381    -0.24000
H1425       H  0.22342032  0.55783296  0.98081125     0.09500
H1426       H  0.18369888  0.55032885  0.96694084     0.13100
H1427       H  0.16128242  0.59333743  0.00658687     0.11800
H1428       H  0.10820591  0.58365428  0.00385549     0.13000
H1429       H  0.06678062  0.56664276  0.99131215     0.12000
H1430       H  0.14868435  0.55841086  0.95425865     0.09100
H1431       H  0.10659298  0.54575087  0.94185149     0.12400
H1432       H  0.04866676  0.54498942  0.97260969     0.14300
C1433       C  0.31608937  0.90619672  0.15589468    -0.01300
C1434       C  0.33157994  0.93265795  0.15784584    -0.09300
C1435       C  0.35332927  0.94223858  0.14984196    -0.18100
C1436       C  0.36021196  0.92560905  0.13950881     0.04300
C1437       C  0.34401434  0.89897938  0.13746077     0.18500
C1438       C  0.32232355  0.88947266  0.14566617    -0.19500
C1439       C  0.34963662  0.88193772  0.12726971    -0.20800
C1440       C  0.37128622  0.89061528  0.11908698    -0.19300
C1441       C  0.38791436  0.91644266  0.12094483     0.19900
C1442       C  0.38263231  0.93437836  0.13117804     0.02000
C1443       C  0.40026343  0.96015415  0.13267966    -0.14100
C1444       C  0.42227702  0.96760828  0.12441607    -0.11800
C1445       C  0.42715523  0.94985942  0.11441765     0.01500
C1446       C  0.40999308  0.92440352  0.11265727    -0.24000
H1447       H  0.32709703  0.94596999  0.16569333     0.09500
H1448       H  0.36426440  0.96276429  0.15202886     0.13100
H1449       H  0.31018713  0.86907299  0.14405706     0.11800
H1450       H  0.33727272  0.86169746  0.12563676     0.13000
H1451       H  0.37520838  0.87691441  0.11129451     0.12000
H1452       H  0.39785342  0.97490996  0.14016683     0.09100
H1453       H  0.43559048  0.98736002  0.12579991     0.12400
H1454       H  0.41404813  0.91075524  0.10485118     0.14300
C1455       C  0.08196954  0.94022131  0.11263414    -0.01300
C1456       C  0.09221928  0.96221439  0.12040588    -0.09300
C1457       C  0.11378831  0.95598692  0.12901215    -0.18100
C1458       C  0.12561438  0.92722680  0.13018524     0.04300
C1459       C  0.11504772  0.90497109  0.12220761     0.18500
C1460       C  0.09347302  0.91166770  0.11350849    -0.19500
C1461       C  0.12599317  0.87616466  0.12299100    -0.20800
C1462       C  0.14717774  0.86886898  0.13155761    -0.19300
C1463       C  0.15793025  0.89018819  0.13956772     0.19900
C1464       C  0.14737201  0.91970416  0.13900672     0.02000
C1465       C  0.15899172  0.94031451  0.14734214    -0.14100
C1466       C  0.18012733  0.93193085  0.15584695    -0.11800
C1467       C  0.19047141  0.90283998  0.15634882     0.01500
C1468       C  0.17923079  0.88209495  0.14815878    -0.24000
H1469       H  0.08342441  0.98440660  0.11977985     0.09500
H1470       H  0.12056700  0.97413609  0.13463395     0.13100
H1471       H  0.08542808  0.89469071  0.10744911     0.11800
H1472       H  0.11806611  0.85912267  0.11694577     0.13000
H1473       H  0.15516773  0.84633775  0.13193780     0.12000
H1474       H  0.15224665  0.96309969  0.14754637     0.09100
H1475       H  0.18852663  0.94842193  0.16202870     0.12400
H1476       H  0.18712319  0.85951012  0.14843630     0.14300
C1477       C  0.42137564  0.52388831  0.06146160    -0.01300
C1478       C  0.42186028  0.55265996  0.05698415    -0.09300
C1479       C  0.39841818  0.56286741  0.04986889    -0.18100
C1480       C  0.37378783  0.54436719  0.04704518     0.04300
C1481       C  0.37348039  0.51529789  0.05183577     0.18500
C1482       C  0.39712230  0.50543049  0.05893221    -0.19500
C1483       C  0.34965940  0.49609035  0.04949061    -0.20800
C1484       C  0.32587181  0.50509255  0.04248612    -0.19300
C1485       C  0.32546840  0.53343286  0.03759382     0.19900
C1486       C  0.34946053  0.55350328  0.03967629     0.02000
C1487       C  0.34802753  0.58163674  0.03420372    -0.14100
C1488       C  0.32364924  0.58943551  0.02706120    -0.11800
C1489       C  0.29999259  0.56963911  0.02531374     0.01500
C1490       C  0.30108039  0.54173499  0.03057909    -0.24000
H1491       H  0.44052458  0.56718215  0.05897036     0.09500
H1492       H  0.40020446  0.58525718  0.04672750     0.13100
H1493       H  0.39688407  0.48314249  0.06245231     0.11800
H1494       H  0.34938142  0.47394591  0.05312964     0.13000
H1495       H  0.30765619  0.48973653  0.04086373     0.12000
H1496       H  0.36543767  0.59796637  0.03520031     0.09100
H1497       H  0.32312148  0.61104244  0.02295396     0.12400
H1498       H  0.28289981  0.52624823  0.02903833     0.14300
C1499       C  0.07205738  0.51125737  0.05644636    -0.01300
C1500       C  0.07602305  0.54172821  0.05556538    -0.09300
C1501       C  0.09851319  0.55331626  0.04837352    -0.18100
C1502       C  0.11777165  0.53450922  0.04187315     0.04300
C1503       C  0.11231198  0.50357203  0.04226905     0.18500
C1504       C  0.08978764  0.49220500  0.04967378    -0.19500
C1505       C  0.12955388  0.48424499  0.03537863    -0.20800
C1506       C  0.15243418  0.49499375  0.02817565    -0.19300
C1507       C  0.15927617  0.52516007  0.02806470     0.19900
C1508       C  0.14235836  0.54530293  0.03508262     0.02000
C1509       C  0.15160849  0.57518539  0.03543755    -0.14100
C1510       C  0.17654300  0.58461679  0.02905135    -0.11800
C1511       C  0.19218420  0.56491572  0.02179804     0.01500
C1512       C  0.18360192  0.53525664  0.02129515    -0.24000
H1513       H  0.06193371  0.55656940  0.06065288     0.09500
H1514       H  0.10015259  0.57702969  0.04805318     0.13100
H1515       H  0.08612804  0.46857594  0.05027538     0.11800
H1516       H  0.12527890  0.46068379  0.03554615     0.13000
H1517       H  0.16538070  0.47952775  0.02290561     0.12000
H1518       H  0.14081207  0.59155962  0.04092000     0.09100
H1519       H  0.18371119  0.60743310  0.02973953     0.12400
H1520       H  0.19661274  0.51992843  0.01596916     0.14300
N1521       N  0.95963398  0.98236495  0.08696293    -0.36600
N1522       N  0.50232583  0.45732678  0.10129893    -0.57100
N1523       N  0.54619397  0.47201430  0.08327133    -0.36600
N1524       N  0.50325777  0.99996684  0.06951354    -0.57100
C1525       C  0.93709887  0.47764681  0.09694671     0.27000
C1526       C  0.94415772  0.00235274  0.08054080     0.27000
C1527       C  0.56441531  0.46541206  0.09253346     0.27000
C1528       C  0.56598858  0.98530867  0.07595127     0.27000
C1529       C  0.97434980  0.44594549  0.10717527     0.35600
C1530       C  0.52615709  0.44338862  0.10599997     0.35600
C1531       C  0.97923119  0.00689136  0.06357768     0.35600
C1532       C  0.52616571  0.00017996  0.06169595     0.35600
C1533       C  0.91096427  0.49407388  0.09696005    -0.21800
C1534       C  0.91899114  0.01107655  0.08683932    -0.21800
C1535       C  0.59310480  0.47554090  0.09011006    -0.21800
C1536       C  0.59503464  0.98715113  0.08023207    -0.21800
C1537       C  0.98300363  0.42592177  0.11583489    -0.22900
C1538       C  0.51713268  0.42532271  0.11532113    -0.22900
C1539       C  0.98632447  0.01175422  0.05169611    -0.22900
C1540       C  0.51615837  0.00784993  0.05041302    -0.22900
C1541       C  0.94520004  0.45721204  0.10584871    -0.18300
C1542       C  0.95074322  0.01070062  0.06870340    -0.18300
C1543       C  0.55636623  0.99679495  0.06489476    -0.18200
C1544       C  0.55610926  0.44956318  0.10290180    -0.18200
H1545       H  0.89375980  0.49457876  0.10375557     0.14700
H1546       H  0.90192793  0.02640207  0.08399237     0.14700
H1547       H  0.61284516  0.47330095  0.09561385     0.14700
H1548       H  0.61407283  0.99760901  0.07599814     0.14700
H1549       H  0.96889408  0.41476261  0.12226643     0.12900
H1550       H  0.53103900  0.41211712  0.12110582     0.12900
H1551       H  0.97139134  0.01800186  0.04454402     0.12900
H1552       H  0.52938313  0.01048074  0.04238411     0.12900
H1553       H  0.97703297  0.96930249  0.08382701     0.26200
H1554       H  0.52441492  0.46456947  0.08200381     0.26200
C1555       C  0.72693327  0.08244093  0.00369044     0.02300
C1556       C  0.72492934  0.07649990  0.01611788     0.02300
C1557       C  0.75072788  0.07645616  0.02317074    -0.18200
C1558       C  0.77907963  0.07894301  0.01805091     0.02300
C1559       C  0.78155526  0.08481473  0.00572975     0.02300
C1560       C  0.75549668  0.08885031  0.99895548    -0.18200
H1561       H  0.75793195  0.09379719  0.98955126     0.04300
H1562       H  0.74888069  0.07134249  0.03260925     0.04300
O1563       O  0.77729667  0.41283091  0.17214628    -0.71700
O1564       O  0.71908721  0.38811113  0.19459092    -0.72000
O1565       O  0.77940947  0.38998221  0.19408518    -0.71800
O1566       O  0.71757114  0.41103950  0.17253185    -0.71800
O1567       O  0.71763857  0.36664678  0.16518168    -0.71800
O1568       O  0.78077983  0.34616481  0.18621905    -0.71800
O1569       O  0.72034549  0.34373012  0.18725958    -0.71700
O1570       O  0.77741084  0.36903460  0.16421578    -0.71900
V1571       V  0.74829993  0.39957519  0.18322414     1.35200
V1572       V  0.74901637  0.35718095  0.17591081     1.35200
C1573       C  0.78710935  0.39529795  0.16429015     0.77500
C1574       C  0.70937990  0.36186430  0.19466947     0.77600
C1575       C  0.79140713  0.36478464  0.19353788     0.77400
C1576       C  0.70735918  0.39260037  0.16505629     0.77400
N1577       N  0.54554700  0.00187339  0.93098878    -0.36600
N1578       N  0.00039712  0.02801925  0.94611054    -0.57100
N1579       N  0.95397378  0.00324015  0.93098339    -0.36600
N1580       N  0.99274125  0.47584491  0.91586097    -0.57100
C1581       C  0.56187613  0.00881531  0.94079193     0.27000
C1582       C  0.55507351  0.48258281  0.92407750     0.27000
C1583       C  0.93787621  0.01100562  0.94072364     0.27000
C1584       C  0.93106643  0.48802730  0.92376739     0.27000
C1585       C  0.52566808  0.04284137  0.95015221     0.35600
C1586       C  0.97635704  0.04274144  0.95027211     0.35600
C1587       C  0.51697782  0.47074203  0.90878553     0.35600
C1588       C  0.96858925  0.47257352  0.90872605     0.35600
C1589       C  0.58759521  0.99169616  0.94093339    -0.21800
C1590       C  0.58144337  0.47612800  0.92995785    -0.21800
C1591       C  0.91010233  0.99720331  0.94029837    -0.21800
C1592       C  0.90340749  0.48515939  0.92923823    -0.21800
C1593       C  0.51715567  0.06770621  0.95654602    -0.22900
C1594       C  0.98544639  0.06728397  0.95674728    -0.22900
C1595       C  0.50783202  0.46264072  0.89741554    -0.22900
C1596       C  0.97737882  0.46399574  0.89736252    -0.22900
C1597       C  0.55516882  0.03197698  0.94895551    -0.18300
C1598       C  0.54685290  0.47130256  0.91279297    -0.18300
C1599       C  0.93868699  0.47573207  0.91257169    -0.18200
C1600       C  0.94676459  0.03214055  0.94937689    -0.18200
H1601       H  0.60514136  0.99173700  0.94758174     0.14700
H1602       H  0.59857161  0.46075408  0.92717774     0.14700
H1603       H  0.89178604  0.99947815  0.94654522     0.14700
H1604       H  0.88432737  0.47259770  0.92608108     0.14700
H1605       H  0.53146547  0.08400643  0.96074234     0.12900
H1606       H  0.97155344  0.08304359  0.96141092     0.12900
H1607       H  0.52180556  0.45666921  0.88989889     0.12900
H1608       H  0.96322640  0.45943478  0.88973559     0.12900
H1609       H  0.52702690  0.01334893  0.92785437     0.26200
H1610       H  0.97396113  0.01282970  0.92820855     0.26200
O1611       O  0.77340667  0.38158896  0.85369116    -0.71700
O1612       O  0.71403207  0.35634171  0.83152447    -0.72000
O1613       O  0.77432679  0.35762483  0.83181166    -0.71800
O1614       O  0.71330102  0.38008564  0.85346224    -0.71800
O1615       O  0.71188381  0.42365012  0.84547504    -0.71800
O1616       O  0.77494805  0.40167373  0.82426169    -0.71800
O1617       O  0.71436145  0.39986592  0.82348304    -0.71700
O1618       O  0.77170184  0.42573278  0.84622601    -0.71900
V1619       V  0.74377238  0.36975286  0.84244009     1.35200
V1620       V  0.74324005  0.41185433  0.83496628     1.35200
C1621       C  0.78230426  0.40813835  0.85385186     0.77500
C1622       C  0.70364150  0.37400147  0.82385281     0.77600
C1623       C  0.78569374  0.37584456  0.82456746     0.77400
C1624       C  0.70215225  0.40566606  0.85321409     0.77400
O1625       O  0.53156802  0.09387284  0.70634102    -0.71700
O1626       O  0.53276731  0.03171630  0.68343958    -0.72000
O1627       O  0.53251724  0.09082077  0.68251683    -0.71800
O1628       O  0.53202583  0.03454435  0.70743333    -0.71800
O1629       O  0.98364268  0.03370783  0.70709570    -0.71800
O1630       O  0.98440858  0.09134705  0.68258595    -0.71800
O1631       O  0.98428160  0.03207924  0.68316308    -0.71700
O1632       O  0.98362797  0.09288835  0.70648009    -0.71900
V1633       V  0.53126996  0.06268259  0.69494377     1.35200
V1634       V  0.98493822  0.06247378  0.69484768     1.35200
C1635       C  0.00773745  0.10404831  0.71031861     0.77500
C1636       C  0.00862375  0.02165574  0.67928979     0.77600
C1637       C  0.00889900  0.10117955  0.67854183     0.77400
C1638       C  0.00777158  0.02407922  0.71146200     0.77400
N1639       N  0.01719457  0.35677816  0.59359527    -0.36600
N1640       N  0.01570839  0.31062066  0.57544690    -0.57100
N1641       N  0.01337280  0.26637367  0.59414356    -0.36600
N1642       N  0.01165600  0.31257672  0.61221729    -0.57100
C1643       C  0.01331625  0.37308788  0.58362677     0.27000
C1644       C  0.01013863  0.37412860  0.60303869     0.27000
C1645       C  0.00807328  0.24917966  0.58447253     0.27000
C1646       C  0.00683541  0.25014248  0.60391816     0.27000
C1647       C  0.02219293  0.33387633  0.56837837     0.35600
C1648       C  0.01938121  0.28620782  0.56865788     0.35600
C1649       C  0.01517109  0.33674473  0.61917274     0.35600
C1650       C  0.01445576  0.28901043  0.61947854     0.35600
C1651       C  0.00401680  0.40123455  0.58678572    -0.21800
C1652       C  0.00208249  0.40190448  0.59903302    -0.21800
C1653       C  0.99840027  0.22154027  0.58815534    -0.21800
C1654       C  0.99775136  0.22210057  0.60042379    -0.21800
C1655       C  0.02984941  0.32420066  0.55702570    -0.22900
C1656       C  0.02791640  0.29397631  0.55718850    -0.22900
C1657       C  0.01970494  0.32852742  0.63094470    -0.22900
C1658       C  0.01930225  0.29826397  0.63113720    -0.22900
C1659       C  0.01925598  0.36375844  0.57178788    -0.18300
C1660       C  0.01232403  0.36611966  0.61519646    -0.18300
C1661       C  0.01066707  0.25932019  0.61590055    -0.18200
C1662       C  0.01344307  0.25710238  0.57245378    -0.18200
H1663       H  0.99920749  0.41948069  0.58088287     0.14700
H1664       H  0.99561786  0.42077612  0.60437714     0.14700
H1665       H  0.99281107  0.20273465  0.58259247     0.14700
H1666       H  0.99153590  0.20379336  0.60610304     0.14700
H1667       H  0.03582759  0.33752226  0.54937543     0.12900
H1668       H  0.03214197  0.27940275  0.54970362     0.12900
H1669       H  0.02264467  0.34282838  0.63861874     0.12900
H1670       H  0.02178194  0.28466978  0.63900251     0.12900
H1671       H  0.02732073  0.33623519  0.59398004     0.26200
H1672       H  0.02413425  0.28667953  0.59413823     0.26200
C1673       C  0.00816367  0.03283767  0.51442495     0.02300
C1674       C  0.99780006  0.03282600  0.50247136     0.02300
C1675       C  0.99154711  0.05977935  0.49691882    -0.18200
C1676       C  0.99490712  0.08674591  0.50294746     0.02300
C1677       C  0.00485332  0.08684035  0.51491074     0.02300
C1678       C  0.01162130  0.05994960  0.52042818    -0.18200
H1679       H  0.01833544  0.06008632  0.52973238     0.04300
H1680       H  0.98443623  0.05977642  0.48765789     0.08300
C1681       C  0.99394781  0.28773979  0.76154248     0.86500
C1682       C  0.52002976  0.29071156  0.77046144    -0.53700
C1683       C  0.52040139  0.31656908  0.77678846     0.09500
C1684       C  0.99410056  0.33667210  0.77398829     0.20400
C1685       C  0.96597494  0.29190822  0.76943294    -0.54400
C1686       C  0.96596937  0.31758367  0.77587163     0.09600
C1687       C  0.99572830  0.31594315  0.75395809    -0.54000
C1688       C  0.99580069  0.34135003  0.76049800     0.10100
H1689       H  0.53778939  0.27451399  0.77108409     0.14600
H1690       H  0.99407850  0.35753857  0.77921729     0.00400
H1691       H  0.94753548  0.27646059  0.77004063     0.14900
H1692       H  0.99727431  0.31580878  0.74427534     0.14700
N1693       N  0.97770039  0.35286781  0.42452126    -0.36600
N1694       N  0.98007221  0.30803245  0.40572325    -0.57100
N1695       N  0.97678177  0.26240454  0.42363126    -0.36600
N1696       N  0.97725231  0.30742005  0.44247566    -0.57100
C1697       C  0.98455046  0.36966163  0.41495354     0.27000
C1698       C  0.98372131  0.36920982  0.43437156     0.27000
C1699       C  0.98384987  0.24594042  0.41391118     0.27000
C1700       C  0.98170508  0.24558300  0.43338408     0.27000
C1701       C  0.97651120  0.33224520  0.39888330     0.35600
C1702       C  0.97686165  0.28450023  0.39838354     0.35600
C1703       C  0.97288332  0.33105742  0.44964766     0.35600
C1704       C  0.97162822  0.28334470  0.44917797     0.35600
C1705       C  0.99469922  0.39710393  0.41874156    -0.21800
C1706       C  0.99426673  0.39678649  0.43100445    -0.21800
C1707       C  0.99286006  0.21813027  0.41754929    -0.21800
C1708       C  0.99162228  0.21794264  0.42982256    -0.21800
C1709       C  0.97135731  0.32410857  0.38711775    -0.22900
C1710       C  0.97173560  0.29385106  0.38678720    -0.22900
C1711       C  0.96455410  0.32202005  0.46097531    -0.22900
C1712       C  0.96366812  0.29173383  0.46067489    -0.22900
C1713       C  0.98020237  0.36157819  0.40289925    -0.18300
C1714       C  0.97836578  0.36054367  0.44629342    -0.18300
C1715       C  0.97613105  0.25394621  0.44538085    -0.18200
C1716       C  0.98082320  0.25482173  0.40184823    -0.18200
H1717       H  0.00153928  0.41553843  0.41324009     0.14700
H1718       H  0.00069308  0.41493619  0.43677751     0.14700
H1719       H  0.99945655  0.19973993  0.41196748     0.14700
H1720       H  0.99719996  0.19942782  0.43547477     0.14700
H1721       H  0.96830197  0.33847396  0.37951342     0.12900
H1722       H  0.96901452  0.28037031  0.37886683     0.12900
H1723       H  0.96000602  0.33578665  0.46867642     0.12900
H1724       H  0.95833604  0.27750650  0.46813233     0.12900
H1725       H  0.96628519  0.33287574  0.42427085     0.26200
H1726       H  0.96612073  0.28270926  0.42361059     0.26200
O1727       O  0.96518333  0.02906570  0.33468487    -0.71700
O1728       O  0.96840660  0.08400034  0.30924814    -0.72000
O1729       O  0.96829054  0.02480709  0.31077097    -0.71800
O1730       O  0.96551583  0.08831473  0.33313153    -0.71800
O1731       O  0.52316482  0.08781766  0.33483925    -0.71800
O1732       O  0.52697753  0.02408192  0.31276646    -0.71800
O1733       O  0.52650906  0.08380880  0.31106573    -0.71700
O1734       O  0.52343941  0.02855765  0.33648635    -0.71900
V1735       V  0.96777335  0.05652860  0.32196691     1.35200
V1736       V  0.52409752  0.05607009  0.32373597     1.35200
C1737       C  0.98889059  0.01903359  0.33925808     0.77500
C1738       C  0.99312899  0.09439354  0.30571445     0.77600
C1739       C  0.99308335  0.01425922  0.30738819     0.77400
C1740       C  0.98937167  0.09872840  0.33758476     0.77400
C1741       C  0.99840826  0.27662912  0.25437820     0.86500
C1742       C  0.97358297  0.28277723  0.24522046    -0.53700
C1743       C  0.97535285  0.30997730  0.24003498     0.09500
C1744       C  0.00246083  0.32839445  0.24422800     0.20400
C1745       C  0.52450559  0.28021015  0.24774680    -0.54400
C1746       C  0.52628686  0.30704731  0.24227169     0.09600
C1747       C  0.99703176  0.30270158  0.26314751    -0.54000
C1748       C  0.99912143  0.32966799  0.25784901     0.10100
H1749       H  0.95568545  0.26751237  0.24305791     0.14600
H1750       H  0.00393657  0.35044087  0.23995789     0.00400
H1751       H  0.54221907  0.26391869  0.24724077     0.14900
H1752       H  0.99411650  0.30005899  0.27271802     0.14700
C1753       C  0.99409149  0.11787859  0.29662683    -0.01300
C1754       C  0.96816478  0.12567922  0.29040870    -0.09300
C1755       C  0.96808474  0.14993435  0.28277181    -0.18100
C1756       C  0.99400498  0.16754622  0.28126601     0.04300
C1757       C  0.52362871  0.16335843  0.29046227     0.18500
C1758       C  0.52527486  0.13838439  0.29779336    -0.19500
C1759       C  0.54470282  0.18597033  0.29192338    -0.20800
C1760       C  0.54287788  0.21156878  0.28519427    -0.19300
C1761       C  0.52022071  0.21496605  0.27670883     0.19900
C1762       C  0.99442871  0.19381274  0.27425837     0.02000
C1763       C  0.96888343  0.20478832  0.26836666    -0.14100
C1764       C  0.97007758  0.23100383  0.26189420    -0.11800
C1765       C  0.99686031  0.24714016  0.26086538     0.01500
C1766       C  0.51877621  0.24123501  0.27017513    -0.24000
H1767       H  0.94761901  0.11328401  0.29161285     0.09500
H1768       H  0.94723544  0.15457185  0.27836150     0.13100
H1769       H  0.54283825  0.13683326  0.30443878     0.11800
H1770       H  0.56246259  0.18404743  0.29845627     0.13000
H1771       H  0.55930200  0.22886790  0.28665300     0.12000
H1772       H  0.94741600  0.19396828  0.26876203     0.09100
H1773       H  0.94941866  0.23882003  0.25809475     0.12400
H1774       H  0.53515864  0.25850294  0.27181578     0.14300
C1775       C  0.98731749  0.48772578  0.29984020    -0.01300
C1776       C  0.96134274  0.47089227  0.29809969    -0.09300
C1777       C  0.96174596  0.44560732  0.29093662    -0.18100
C1778       C  0.48444883  0.43535844  0.28552324     0.04300
C1779       C  0.50966684  0.45455470  0.28604554     0.18500
C1780       C  0.50933592  0.47963195  0.29344966    -0.19500
C1781       C  0.53525316  0.44845751  0.27928797    -0.20800
C1782       C  0.53665497  0.42332173  0.27217646    -0.19300
C1783       C  0.51267968  0.40341854  0.27178191     0.19900
C1784       C  0.48615218  0.40911232  0.27842580     0.02000
C1785       C  0.96591694  0.39001417  0.27686169    -0.14100
C1786       C  0.96903987  0.36405744  0.27023986    -0.11800
C1787       C  0.99605979  0.35744729  0.26459479     0.01500
C1788       C  0.51537741  0.37745513  0.26498643    -0.24000
H1789       H  0.94820590  0.99181595  0.29360836     0.09500
H1790       H  0.94089993  0.43378496  0.29009803     0.13100
H1791       H  0.52891692  0.49379204  0.29391650     0.11800
H1792       H  0.55443765  0.46314422  0.27957135     0.13000
H1793       H  0.55688372  0.41913321  0.26711959     0.12000
H1794       H  0.94448126  0.39348778  0.28101424     0.09100
H1795       H  0.95022346  0.34901257  0.26949892     0.12400
H1796       H  0.53582591  0.37302408  0.26013113     0.14300
C1797       C  0.98298702  0.23208687  0.39228352    -0.01300
C1798       C  0.51564262  0.22405197  0.38826129    -0.09300
C1799       C  0.51874926  0.20335437  0.37907074    -0.18100
C1800       C  0.49337530  0.19138683  0.37319748     0.04300
C1801       C  0.95914262  0.20106306  0.37719264     0.18500
C1802       C  0.95719424  0.22188389  0.38649419    -0.19500
C1803       C  0.93295790  0.19133572  0.37155133    -0.20800
C1804       C  0.93410142  0.17015717  0.36254618    -0.19300
C1805       C  0.96146798  0.15816620  0.35893602     0.19900
C1806       C  0.49534831  0.16952494  0.36397951     0.02000
C1807       C  0.52284340  0.15802529  0.35984420    -0.14100
C1808       C  0.52363743  0.13555225  0.35128751    -0.11800
C1809       C  0.98884219  0.12313790  0.34644897     0.01500
C1810       C  0.96182618  0.13592995  0.35012402    -0.24000
H1811       H  0.53545735  0.23283604  0.39258227     0.09500
H1812       H  0.54127894  0.19710262  0.37682395     0.13100
H1813       H  0.93559280  0.23035997  0.38923038     0.11800
H1814       H  0.91137093  0.19994638  0.37421366     0.13000
H1815       H  0.91336574  0.16284807  0.35846866     0.12000
H1816       H  0.54414917  0.16564070  0.36314387     0.09100
H1817       H  0.54518181  0.12705985  0.34853163     0.12400
H1818       H  0.94095705  0.12829284  0.34624731     0.14300
C1819       C  0.98370282  0.49669844  0.34966894    -0.01300
C1820       C  0.95656238  0.49045596  0.35537832    -0.09300
C1821       C  0.95495838  0.46915301  0.36431351    -0.18100
C1822       C  0.98060450  0.45313904  0.36777339     0.04300
C1823       C  0.50769980  0.46118721  0.36263719     0.18500
C1824       C  0.50883001  0.48268020  0.35367442    -0.19500
C1825       C  0.53367380  0.44557720  0.36544589    -0.20800
C1826       C  0.53301613  0.42337004  0.37394709    -0.19300
C1827       C  0.50643163  0.41644478  0.37990382     0.19900
C1828       C  0.97992452  0.43075084  0.37670053     0.02000
C1829       C  0.95373700  0.42330478  0.38315343    -0.14100
C1830       C  0.95404942  0.40091451  0.39165499    -0.11800
C1831       C  0.98026464  0.38532802  0.39392553     0.01500
C1832       C  0.50632825  0.39349166  0.38824482    -0.24000
H1833       H  0.93636452  0.50206974  0.35291599     0.09500
H1834       H  0.93323705  0.46553922  0.36821492     0.13100
H1835       H  0.54343490  0.98529047  0.34892371     0.11800
H1836       H  0.55456944  0.45030131  0.36091385     0.13000
H1837       H  0.55341288  0.41139929  0.37582342     0.12000
H1838       H  0.93271386  0.43437213  0.38189061     0.09100
H1839       H  0.93370724  0.39560151  0.39646772     0.12400
H1840       H  0.52660842  0.38121796  0.39003799     0.14300
C1841       C  0.97667806  0.23068427  0.45461669    -0.01300
C1842       C  0.95355196  0.20996921  0.45527296    -0.09300
C1843       C  0.95422536  0.18768159  0.46382655    -0.18100
C1844       C  0.97839342  0.18540914  0.47193741     0.04300
C1845       C  0.50272634  0.20530214  0.47084088     0.18500
C1846       C  0.50228277  0.22769978  0.46224385    -0.19500
C1847       C  0.52728073  0.20312393  0.47851991    -0.20800
C1848       C  0.52906924  0.18020466  0.48669325    -0.19300
C1849       C  0.50601793  0.15935476  0.48755722     0.19900
C1850       C  0.98063061  0.16232434  0.48051981     0.02000
C1851       C  0.95798879  0.14085616  0.48217600    -0.14100
C1852       C  0.96227653  0.11715348  0.48987009    -0.11800
C1853       C  0.98901548  0.11419136  0.49622178     0.01500
C1854       C  0.50916632  0.13548373  0.49539074    -0.24000
H1855       H  0.93496493  0.21102140  0.44908659     0.09500
H1856       H  0.93583470  0.17225941  0.46368097     0.13100
H1857       H  0.52054400  0.24347754  0.46170481     0.11800
H1858       H  0.54557408  0.21884091  0.47800113     0.13000
H1859       H  0.54875189  0.17860663  0.49229727     0.12000
H1860       H  0.93687798  0.14152156  0.47755835     0.09100
H1861       H  0.94485049  0.10058438  0.49066582     0.12400
H1862       H  0.52970510  0.13287997  0.50041830     0.14300
C1863       C  0.99341704  0.00551443  0.49534281    -0.01300
C1864       C  0.96934817  0.50117650  0.48943284    -0.09300
C1865       C  0.96454194  0.47693174  0.48198652    -0.18100
C1866       C  0.98725450  0.45585398  0.48003344     0.04300
C1867       C  0.51342730  0.45958189  0.48639548     0.18500
C1868       C  0.51477401  0.98597253  0.49366778    -0.19500
C1869       C  0.53662692  0.43916941  0.48514599    -0.20800
C1870       C  0.53348761  0.41488610  0.47761612    -0.19300
C1871       C  0.50721769  0.41061270  0.47103045     0.19900
C1872       C  0.98378487  0.43142765  0.47203238     0.02000
C1873       C  0.95768168  0.42673146  0.46510421    -0.14100
C1874       C  0.95578857  0.40327971  0.45702585    -0.11800
C1875       C  0.97954803  0.38364166  0.45569631     0.01500
C1876       C  0.50519759  0.38663101  0.46308065    -0.24000
H1877       H  0.95153036  0.51707141  0.49059740     0.09500
H1878       H  0.94285036  0.47547064  0.47784951     0.13100
H1879       H  0.53612417  0.99065709  0.49787194     0.11800
H1880       H  0.55727356  0.94711929  0.48862953     0.13000
H1881       H  0.55194048  0.39957450  0.47679472     0.12000
H1882       H  0.93857373  0.44108727  0.46551878     0.09100
H1883       H  0.93585109  0.40068812  0.45162130     0.12400
H1884       H  0.52382875  0.37157368  0.46206992     0.14300
C1885       C  0.01197566  0.23357271  0.56327457    -0.01300
C1886       C  0.98540182  0.22849805  0.55704657    -0.09300
C1887       C  0.98350465  0.20584930  0.54860473    -0.18100
C1888       C  0.50741027  0.18778538  0.54604955     0.04300
C1889       C  0.53465055  0.19308576  0.55229303     0.18500
C1890       C  0.53668412  0.21601943  0.56070851    -0.19500
C1891       C  0.55958941  0.17525541  0.55021582    -0.20800
C1892       C  0.55797714  0.15180473  0.54222047    -0.19300
C1893       C  0.53141019  0.14566684  0.53608490     0.19900
C1894       C  0.50581304  0.16375940  0.53777485     0.02000
C1895       C  0.98141058  0.15633366  0.53115206    -0.14100
C1896       C  0.98098524  0.13192430  0.52352300    -0.11800
C1897       C  0.00629640  0.11417542  0.52220109     0.01500
C1898       C  0.53014444  0.12115199  0.52841046    -0.24000
H1899       H  0.96595748  0.24201935  0.55881669     0.09500
H1900       H  0.96221929  0.20312491  0.54423499     0.13100
H1901       H  0.55736293  0.21984833  0.56554172     0.11800
H1902       H  0.58040935  0.17926948  0.55491354     0.13000
H1903       H  0.57757890  0.13816790  0.54091921     0.12000
H1904       H  0.96098647  0.16876720  0.53174249     0.09100
H1905       H  0.96050291  0.12644557  0.51883649     0.12400
H1906       H  0.54960353  0.10718498  0.52730478     0.14300
C1907       C  0.02106244  0.38665350  0.56238679    -0.01300
C1908       C  0.54526016  0.40767865  0.56218649    -0.09300
C1909       C  0.54576965  0.43039670  0.55379697    -0.18100
C1910       C  0.02256767  0.43286407  0.54541475     0.04300
C1911       C  0.99908930  0.41156036  0.54532970     0.18500
C1912       C  0.99865700  0.38866954  0.55373052    -0.19500
C1913       C  0.97574507  0.41365890  0.53707106    -0.20800
C1914       C  0.97452965  0.43714988  0.52915156    -0.19300
C1915       C  0.99686756  0.45885454  0.52918332     0.19900
C1916       C  0.02166147  0.45663447  0.53707683     0.02000
C1917       C  0.54356759  0.47907856  0.53609273    -0.14100
C1918       C  0.54020615  0.50294369  0.52837053    -0.11800
C1919       C  0.01355830  0.00535012  0.52129140     0.01500
C1920       C  0.99218229  0.98266468  0.52154506    -0.24000
H1921       H  0.56276241  0.40657150  0.56885664     0.09500
H1922       H  0.56401821  0.44589849  0.55449100     0.13100
H1923       H  0.98045269  0.37276971  0.55376882     0.11800
H1924       H  0.95790173  0.39739598  0.53692844     0.13000
H1925       H  0.95528874  0.93679576  0.52297504     0.12000
H1926       H  0.56364552  0.47883147  0.54140355     0.09100
H1927       H  0.55742606  0.51983019  0.52816793     0.12400
H1928       H  0.97210283  0.98447667  0.51618859     0.14300
C1929       C  0.00963779  0.12427691  0.66927778    -0.01300
C1930       C  0.53680847  0.13393930  0.66462375    -0.09300
C1931       C  0.53822221  0.15606845  0.65604425    -0.18100
C1932       C  0.01194149  0.16944843  0.65180017     0.04300
C1933       C  0.98404064  0.15822745  0.65592224     0.18500
C1934       C  0.98313653  0.13581003  0.66455300    -0.19500
C1935       C  0.95721749  0.16949547  0.65143402    -0.20800
C1936       C  0.95746429  0.19171822  0.64290525    -0.19300
C1937       C  0.98453791  0.20303480  0.63859252     0.19900
C1938       C  0.01221795  0.19200678  0.64293942     0.02000
C1939       C  0.53919787  0.20299598  0.63769945    -0.14100
C1940       C  0.53858448  0.22502438  0.62905249    -0.11800
C1941       C  0.01091082  0.23637827  0.62524768     0.01500
C1942       C  0.98414224  0.22521613  0.62987487    -0.24000
H1943       H  0.55756952  0.12503212  0.66801874     0.09500
H1944       H  0.56031341  0.16283767  0.65334484     0.13100
H1945       H  0.96173363  0.12743973  0.66763037     0.11800
H1946       H  0.93588208  0.16109268  0.65455778     0.13000
H1947       H  0.93632172  0.20000732  0.63961151     0.12000
H1948       H  0.56102179  0.19539919  0.64029670     0.09100
H1949       H  0.55944701  0.23330774  0.62541921     0.12400
H1950       H  0.96305947  0.23365150  0.62656343     0.14300
C1951       C  0.01079905  0.38975949  0.62433377    -0.01300
C1952       C  0.98331393  0.39772321  0.62928341    -0.09300
C1953       C  0.98183829  0.41917109  0.63824127    -0.18100
C1954       C  0.00808712  0.43315131  0.64257557     0.04300
C1955       C  0.53633072  0.42401998  0.63760925     0.18500
C1956       C  0.53748086  0.40269853  0.62850645    -0.19500
C1957       C  0.56301065  0.43630890  0.64188805    -0.20800
C1958       C  0.56262764  0.45729361  0.65095524    -0.19300
C1959       C  0.53555021  0.46654624  0.65595945     0.19900
C1960       C  0.00780350  0.45483180  0.65187959     0.02000
C1961       C  0.98124852  0.46446148  0.65751896    -0.14100
C1962       C  0.98204715  0.48575502  0.66654960    -0.11800
C1963       C  0.00867228  0.99841501  0.66997189     0.01500
C1964       C  0.53591495  0.48793045  0.66506836    -0.24000
H1965       H  0.96293116  0.38711490  0.62623536     0.09500
H1966       H  0.95987915  0.42409470  0.64164194     0.13100
H1967       H  0.55883391  0.39580825  0.62486504     0.11800
H1968       H  0.58435958  0.42960378  0.63820476     0.13000
H1969       H  0.58369360  0.46638538  0.65407019     0.12000
H1970       H  0.95946781  0.45609172  0.65513837     0.09100
H1971       H  0.96068955  0.99225450  0.67009475     0.12400
H1972       H  0.55708852  0.49702124  0.66807834     0.14300
C1973       C  0.00716348  0.12941900  0.71862059    -0.01300
C1974       C  0.53225247  0.14645057  0.72046894    -0.09300
C1975       C  0.53123826  0.17196720  0.72748293    -0.18100
C1976       C  0.00472485  0.18142498  0.73279319     0.04300
C1977       C  0.97895106  0.16336566  0.73119489     0.18500
C1978       C  0.98035202  0.13781034  0.72411965    -0.19500
C1979       C  0.95180172  0.17107775  0.73654757    -0.20800
C1980       C  0.94963589  0.19644378  0.74348171    -0.19300
C1981       C  0.97444655  0.21498146  0.74508069     0.19900
C1982       C  0.00222639  0.20800408  0.73961162     0.02000
C1983       C  0.52587463  0.22797065  0.74119466    -0.14100
C1984       C  0.52264547  0.25340408  0.74812210    -0.11800
C1985       C  0.99577389  0.25993552  0.75382540     0.01500
C1986       C  0.97148538  0.24055893  0.75209770    -0.24000
H1987       H  0.55338980  0.14002825  0.71653102     0.09500
H1988       H  0.55211490  0.18351029  0.72874650     0.13100
H1989       H  0.96034838  0.12459964  0.72277187     0.11800
H1990       H  0.93209895  0.15734962  0.73538767     0.13000
H1991       H  0.92832248  0.20169026  0.74756858     0.12000
H1992       H  0.54744880  0.22467430  0.73712828     0.09100
H1993       H  0.54167842  0.26810256  0.74904924     0.12400
H1994       H  0.94989115  0.24521219  0.75593709     0.14300
C1995       C  0.00856816  0.50188308  0.72126991    -0.01300
C1996       C  0.53346233  0.49037072  0.72591416    -0.09300
C1997       C  0.53259443  0.46619323  0.73362314    -0.18100
C1998       C  0.00679535  0.45251668  0.73681243     0.04300
C1999       C  0.97998257  0.46617114  0.73288992     0.18500
C2000       C  0.98111472  0.49063725  0.72526713    -0.19500
C2001       C  0.95211674  0.45464408  0.73618872    -0.20800
C2002       C  0.95019794  0.42891692  0.74284817    -0.19300
C2003       C  0.97609473  0.41397575  0.74627145     0.19900
C2004       C  0.00484227  0.42576881  0.74349993     0.02000
C2005       C  0.52882975  0.41039434  0.74748948    -0.14100
C2006       C  0.52598253  0.38321757  0.75323009    -0.11800
C2007       C  0.99882224  0.37065739  0.75508260     0.01500
C2008       C  0.97338766  0.38674902  0.75211401    -0.24000
H2009       H  0.55497364  0.49981202  0.72357995     0.09500
H2010       H  0.55380175  0.45858164  0.73694881     0.13100
H2011       H  0.96043865  0.50014442  0.72203329     0.11800
H2012       H  0.93162141  0.46519616  0.73334051     0.13000
H2013       H  0.92827455  0.42016720  0.74502953     0.12000
H2014       H  0.55127498  0.41854630  0.74624144     0.09100
H2015       H  0.54590940  0.37167330  0.75607323     0.12400
H2016       H  0.95146635  0.37759853  0.75405920     0.14300
C2017       C  0.94052579  0.32620045  0.78362049    -0.01300
C2018       C  0.92684163  0.30521972  0.79097724    -0.09300
C2019       C  0.90177707  0.31243037  0.79778427    -0.18100
C2020       C  0.88920419  0.34102226  0.79734469     0.04300
C2021       C  0.90346730  0.36241598  0.78999054     0.18500
C2022       C  0.92901823  0.35491149  0.78329132    -0.19500
C2023       C  0.89195559  0.39105949  0.78928755    -0.20800
C2024       C  0.86661134  0.39899314  0.79576736    -0.19300
C2025       C  0.85198810  0.37844935  0.80307337     0.19900
C2026       C  0.86301188  0.34910746  0.80391053     0.02000
C2027       C  0.84724795  0.32907620  0.81125846    -0.14100
C2028       C  0.82206010  0.33788400  0.81765468    -0.11800
C2029       C  0.81146014  0.36690204  0.81701288     0.01500
C2030       C  0.82646248  0.38707715  0.80960555    -0.24000
H2031       H  0.93562942  0.28300867  0.79147781     0.09500
H2032       H  0.89272375  0.29501370  0.80323386     0.13100
H2033       H  0.93944919  0.37120175  0.77754782     0.11800
H2034       H  0.90265946  0.40747918  0.78369088     0.13000
H2035       H  0.85836899  0.42137849  0.79504909     0.12000
H2036       H  0.85377974  0.30638769  0.81230843     0.09100
H2037       H  0.81097058  0.32175855  0.82326073     0.12400
H2038       H  0.81851597  0.40960302  0.80902939     0.14300
C2039       C  0.67859351  0.36521012  0.81591044    -0.01300
C2040       C  0.66549981  0.38597454  0.80830230    -0.09300
C2041       C  0.63990978  0.37897593  0.80172113    -0.18100
C2042       C  0.62642649  0.35076292  0.80253628     0.04300
C2043       C  0.64064960  0.32928131  0.80979096     0.18500
C2044       C  0.66631461  0.33669336  0.81643192    -0.19500
C2045       C  0.62897648  0.30061765  0.81048172    -0.20800
C2046       C  0.60339921  0.29280049  0.80413162    -0.19300
C2047       C  0.58840929  0.31364646  0.79716931     0.19900
C2048       C  0.59942010  0.34307333  0.79641800     0.02000
C2049       C  0.58261425  0.36361746  0.78974287    -0.14100
C2050       C  0.55654256  0.35507426  0.78379570    -0.11800
C2051       C  0.54645224  0.32580948  0.78415612     0.01500
C2052       C  0.56239762  0.30524005  0.79095731    -0.24000
H2053       H  0.67466391  0.40807362  0.80762303     0.09500
H2054       H  0.63120257  0.39616626  0.79609609     0.13100
H2055       H  0.67641958  0.32032646  0.82218900     0.11800
H2056       H  0.63978056  0.28407404  0.81593869     0.13000
H2057       H  0.59508108  0.27035906  0.80478439     0.12000
H2058       H  0.58889553  0.38651848  0.78900015     0.09100
H2059       H  0.54473417  0.37140865  0.77860438     0.12400
H2060       H  0.55445894  0.28263423  0.79146097     0.14300
C2061       C  0.91416467  0.46607069  0.90449837    -0.01300
C2062       C  0.89414092  0.48684978  0.89998563    -0.09300
C2063       C  0.87172372  0.47841920  0.89199450    -0.18100
C2064       C  0.86868789  0.44869193  0.88824504     0.04300
C2065       C  0.88863840  0.42756353  0.89315814     0.18500
C2066       C  0.91111922  0.43640973  0.90118041    -0.19500
C2067       C  0.88619338  0.39777257  0.88996740    -0.20800
C2068       C  0.86444055  0.38842982  0.88192276    -0.19300
C2069       C  0.84484149  0.40870127  0.87674355     0.19900
C2070       C  0.84675119  0.43917584  0.87976910     0.02000
C2071       C  0.82694654  0.45881163  0.87401436    -0.14100
C2072       C  0.80631005  0.44860956  0.86560033    -0.11800
C2073       C  0.80433262  0.41855364  0.86275959     0.01500
C2074       C  0.82352067  0.39867714  0.86843529    -0.24000
H2075       H  0.90106586  0.00671962  0.90368695     0.09500
H2076       H  0.85721320  0.49570618  0.88890902     0.13100
H2077       H  0.92649520  0.42029203  0.90479969     0.11800
H2078       H  0.90125020  0.38156375  0.89371376     0.13000
H2079       H  0.86314418  0.36519608  0.87963855     0.12000
H2080       H  0.82707449  0.48223590  0.87568170     0.09100
H2081       H  0.79161704  0.46436911  0.86135292     0.12400
H2082       H  0.82225053  0.37539436  0.86620856     0.14300
C2083       C  0.67870077  0.41427625  0.86190697    -0.01300
C2084       C  0.66507455  0.39295801  0.86917466    -0.09300
C2085       C  0.64367047  0.40091894  0.87768601    -0.18100
C2086       C  0.63528749  0.43073656  0.87930205     0.04300
C2087       C  0.64920463  0.45227302  0.87189723     0.18500
C2088       C  0.67043459  0.44388924  0.86327481    -0.19500
C2089       C  0.64206310  0.48214465  0.87319171    -0.20800
C2090       C  0.62138183  0.49121088  0.88169130    -0.19300
C2091       C  0.60711690  0.47062399  0.88905788     0.19900
C2092       C  0.61372562  0.44003142  0.88798290     0.02000
C2093       C  0.59825910  0.42019581  0.89558921    -0.14100
C2094       C  0.57692274  0.43036307  0.90375500    -0.11800
C2095       C  0.57065089  0.46046950  0.90468046     0.01500
C2096       C  0.58593973  0.48049445  0.89740890    -0.24000
H2097       H  0.67102531  0.36989854  0.86830450     0.09500
H2098       H  0.63430791  0.38324620  0.88292607     0.13100
H2099       H  0.68095083  0.46059613  0.85775462     0.11800
H2100       H  0.65262968  0.49866735  0.86760408     0.13000
H2101       H  0.61829691  0.01229763  0.88158060     0.12000
H2102       H  0.60184457  0.39670534  0.89533832     0.09100
H2103       H  0.56505396  0.41467135  0.90931141     0.12400
H2104       H  0.58423586  0.00199977  0.89776370     0.14300
C2105       C  0.81799897  0.35763881  0.20086321    -0.01300
C2106       C  0.83014725  0.37839687  0.20882793    -0.09300
C2107       C  0.85649257  0.37241259  0.21509840    -0.18100
C2108       C  0.87170296  0.34533586  0.21354546     0.04300
C2109       C  0.85900898  0.32427384  0.20555128     0.18500
C2110       C  0.83250853  0.33053880  0.19936792    -0.19500
C2111       C  0.87290501  0.29705830  0.20367734    -0.20800
C2112       C  0.89910551  0.29007964  0.20964377    -0.19300
C2113       C  0.91212382  0.31016529  0.21761444     0.19900
C2114       C  0.89887961  0.33822930  0.21963701     0.02000
C2115       C  0.91337106  0.35769304  0.22772563    -0.14100
C2116       C  0.93917975  0.34908851  0.23386026    -0.11800
C2117       C  0.95126501  0.32095698  0.23213723     0.01500
C2118       C  0.93802380  0.30194120  0.22378689    -0.24000
H2119       H  0.81943696  0.39956476  0.21012862     0.09500
H2120       H  0.86446545  0.38946244  0.22103793     0.13100
H2121       H  0.82341846  0.31433393  0.19320047     0.11800
H2122       H  0.86336311  0.28096413  0.19757803     0.13000
H2123       H  0.90916216  0.26868866  0.20806930     0.12000
H2124       H  0.90502202  0.37946649  0.22965867     0.09100
H2125       H  0.94894375  0.36402626  0.24036299     0.12400
H2126       H  0.94753609  0.28024698  0.22231719     0.14300
C2127       C  0.55294067  0.31601825  0.23516287    -0.01300
C2128       C  0.56367466  0.34503363  0.23564358    -0.09300
C2129       C  0.59001546  0.35304225  0.22973448    -0.18100
C2130       C  0.60633607  0.33221621  0.22292763     0.04300
C2131       C  0.59469305  0.30305844  0.22207420     0.18500
C2132       C  0.56847844  0.29521451  0.22824046    -0.19500
C2133       C  0.60916077  0.28192660  0.21501015    -0.20800
C2134       C  0.63475358  0.28925799  0.20858976    -0.19300
C2135       C  0.64691672  0.31772321  0.20928400     0.19900
C2136       C  0.63331918  0.33941474  0.21669957     0.02000
C2137       C  0.64726056  0.36740301  0.21749621    -0.14100
C2138       C  0.67250951  0.37409642  0.21067720    -0.11800
C2139       C  0.68486293  0.35320616  0.20286927     0.01500
C2140       C  0.67233042  0.32479246  0.20243549    -0.24000
H2141       H  0.55205120  0.36158144  0.24081361     0.09500
H2142       H  0.59680608  0.37579859  0.23055692     0.13100
H2143       H  0.55996947  0.27283581  0.22754311     0.11800
H2144       H  0.60036219  0.25966257  0.21430455     0.13000
H2145       H  0.64508675  0.27254037  0.20302713     0.12000
H2146       H  0.63909386  0.38468317  0.22325107     0.09100
H2147       H  0.68197652  0.39608549  0.21133278     0.12400
H2148       H  0.68189857  0.30832068  0.19653532     0.14300
C2149       C  0.92489631  0.04116477  0.95862980    -0.01300
C2150       C  0.91709173  0.02108404  0.96754835    -0.09300
C2151       C  0.89562965  0.02822862  0.97606850    -0.18100
C2152       C  0.88138804  0.05604517  0.97597999     0.04300
C2153       C  0.89062459  0.07699234  0.96727871     0.18500
C2154       C  0.91190590  0.06923271  0.95857776    -0.19500
C2155       C  0.87834359  0.10537404  0.96726676    -0.20800
C2156       C  0.85641257  0.11315708  0.97551317    -0.19300
C2157       C  0.84569744  0.09250579  0.98376496     0.19900
C2158       C  0.85809751  0.06363931  0.98411528     0.02000
C2159       C  0.84575215  0.04314484  0.99223693    -0.14100
C2160       C  0.82179600  0.05077579  0.99950036    -0.11800
C2161       C  0.80966810  0.07915549  0.99916422     0.01500
C2162       C  0.82182046  0.10008531  0.99135229    -0.24000
H2163       H  0.92382703  0.50267178  0.96724146     0.09500
H2164       H  0.89089578  0.01153639  0.98263506     0.13100
H2165       H  0.91833274  0.08490369  0.95173185     0.11800
H2166       H  0.88558143  0.12159120  0.96077259     0.13000
H2167       H  0.84713663  0.13520462  0.97519756     0.12000
H2168       H  0.85320796  0.02064017  0.99286868     0.09100
H2169       H  0.81188012  0.03393039  0.00510810     0.12400
H2170       H  0.81189945  0.12185147  0.99087461     0.14300
C2171       C  0.70109639  0.07844174  0.99520759    -0.01300
C2172       C  0.70632293  0.06684607  0.98371506    -0.09300
C2173       C  0.68303283  0.06235576  0.97564804    -0.18100
C2174       C  0.65314736  0.06725260  0.97904746     0.04300
C2175       C  0.64741085  0.07677804  0.99089067     0.18500
C2176       C  0.67128421  0.08441988  0.99848128    -0.19500
C2177       C  0.61794347  0.07747921  0.99516870    -0.20800
C2178       C  0.59437933  0.06756025  0.98802072    -0.19300
C2179       C  0.59946707  0.05941312  0.97610597     0.19900
C2180       C  0.62870672  0.06131000  0.97127610     0.02000
C2181       C  0.63226915  0.05760948  0.95884994    -0.14100
C2182       C  0.60795158  0.05020079  0.95164002    -0.11800
C2183       C  0.57978359  0.04423107  0.95664164     0.01500
C2184       C  0.57570447  0.04925651  0.96895389    -0.24000
H2185       H  0.72853437  0.06047766  0.98090502     0.09500
H2186       H  0.68879341  0.05311739  0.96705386     0.13100
H2187       H  0.66628960  0.09446155  0.00699498     0.11800
H2188       H  0.61329872  0.08424906  0.00427263     0.13000
H2189       H  0.57201078  0.06684569  0.99174273     0.12000
H2190       H  0.65348521  0.06123290  0.95447109     0.09100
H2191       H  0.61145216  0.04804447  0.94210572     0.12400
H2192       H  0.55411807  0.04507109  0.97302342     0.14300
C2193       C  0.80953406  0.40539822  0.15553715    -0.01300
C2194       C  0.82416970  0.43243179  0.15725992    -0.09300
C2195       C  0.84608478  0.44199331  0.14931810    -0.18100
C2196       C  0.85408103  0.42473490  0.13928862     0.04300
C2197       C  0.83847842  0.39771209  0.13736279     0.18500
C2198       C  0.81658856  0.38823519  0.14550445    -0.19500
C2199       C  0.84495053  0.38022695  0.12737441    -0.20800
C2200       C  0.86689375  0.38883099  0.11929651    -0.19300
C2201       C  0.88310493  0.41494241  0.12109560     0.19900
C2202       C  0.87702404  0.43327550  0.13114017     0.02000
C2203       C  0.89446984  0.45916239  0.13266964    -0.14100
C2204       C  0.91681289  0.46654046  0.12453311    -0.11800
C2205       C  0.92225011  0.44858060  0.11463998     0.01500
C2206       C  0.90549781  0.42283802  0.11292413    -0.24000
H2207       H  0.81894956  0.44619656  0.16490236     0.09500
H2208       H  0.85627484  0.46300852  0.15130830     0.13100
H2209       H  0.80505008  0.36744406  0.14402846     0.11800
H2210       H  0.83301080  0.35970725  0.12581597     0.13000
H2211       H  0.87142331  0.37481379  0.11165049     0.12000
H2212       H  0.89164883  0.47406461  0.14008704     0.09100
H2213       H  0.92980200  0.48651394  0.12588694     0.12400
H2214       H  0.90997630  0.40902259  0.10520462     0.14300
C2215       C  0.57960648  0.44191383  0.11166909    -0.01300
C2216       C  0.59079474  0.46378768  0.11928186    -0.09300
C2217       C  0.61176861  0.45692571  0.12803309    -0.18100
C2218       C  0.62194657  0.42763475  0.12952832     0.04300
C2219       C  0.61036552  0.40550152  0.12173099     0.18500
C2220       C  0.58958530  0.41286641  0.11283122    -0.19500
C2221       C  0.61930654  0.37611525  0.12295897    -0.20800
C2222       C  0.63954159  0.36813412  0.13178613    -0.19300
C2223       C  0.65147889  0.38937433  0.13955727     0.19900
C2224       C  0.64294335  0.41946321  0.13852889     0.02000
C2225       C  0.65582638  0.44003374  0.14656184    -0.14100
C2226       C  0.67623868  0.43109367  0.15522319    -0.11800
C2227       C  0.68462519  0.40146272  0.15619018     0.01500
C2228       C  0.67208330  0.38069315  0.14832756    -0.24000
H2229       H  0.58300644  0.48631468  0.11848963     0.09500
H2230       H  0.61921962  0.47499015  0.13356298     0.13100
H2231       H  0.58062173  0.39595299  0.10694988     0.11800
H2232       H  0.61049206  0.35914769  0.11707697     0.13000
H2233       H  0.64597003  0.34517102  0.13251832     0.12000
H2234       H  0.65077807  0.46324331  0.14636886     0.09100
H2235       H  0.68575755  0.44762826  0.16112251     0.12400
H2236       H  0.67851827  0.35770316  0.14896771     0.14300
C2237       C  0.92617738  0.02250041  0.06126466    -0.01300
C2238       C  0.92727399  0.05119468  0.05671206    -0.09300
C2239       C  0.90407408  0.06178546  0.04956199    -0.18100
C2240       C  0.87900925  0.04380316  0.04680947     0.04300
C2241       C  0.87811957  0.01478112  0.05163652     0.18500
C2242       C  0.90158116  0.00448431  0.05872861    -0.19500
C2243       C  0.85383121  0.99609012  0.04937692    -0.20800
C2244       C  0.83008410  0.00561340  0.04246663    -0.19300
C2245       C  0.83020485  0.03395388  0.03757104     0.19900
C2246       C  0.85473673  0.05345703  0.03952089     0.02000
C2247       C  0.85382732  0.08159225  0.03402919    -0.14100
C2248       C  0.82940234  0.08996012  0.02701851    -0.11800
C2249       C  0.80519278  0.07074162  0.02542196     0.01500
C2250       C  0.80579194  0.04282330  0.03069012    -0.24000
H2251       H  0.94619636  0.06539123  0.05869300     0.09500
H2252       H  0.90632754  0.08410074  0.04637895     0.13100
H2253       H  0.90085819  0.98224586  0.06229090     0.11800
H2254       H  0.85311377  0.97397693  0.05303927     0.13000
H2255       H  0.81146752  0.99067651  0.04093359     0.12000
H2256       H  0.87168141  0.09748895  0.03491325     0.09100
H2257       H  0.82928679  0.11154785  0.02288809     0.12400
H2258       H  0.78721368  0.02774684  0.02924442     0.14300
C2259       C  0.57906011  0.00930177  0.05681137    -0.01300
C2260       C  0.58371870  0.03975833  0.05673403    -0.09300
C2261       C  0.60599236  0.05206647  0.04963549    -0.18100
C2262       C  0.62432594  0.03401878  0.04239335     0.04300
C2263       C  0.61835329  0.00314611  0.04209543     0.18500
C2264       C  0.59602843  0.99102760  0.04940938    -0.19500
C2265       C  0.63483277  0.98461332  0.03457825    -0.20800
C2266       C  0.65743490  0.99605493  0.02741270    -0.19300
C2267       C  0.66465484  0.02611746  0.02788902     0.19900
C2268       C  0.64845757  0.04549093  0.03551161     0.02000
C2269       C  0.65787240  0.07528914  0.03627750    -0.14100
C2270       C  0.68237180  0.08532672  0.02976963    -0.11800
C2271       C  0.69750542  0.06633631  0.02204696     0.01500
C2272       C  0.68863958  0.03682369  0.02107609    -0.24000
H2273       H  0.57024375  0.05401782  0.06233778     0.09500
H2274       H  0.60814778  0.07573852  0.04997379     0.13100
H2275       H  0.59186439  0.96742737  0.04941463     0.11800
H2276       H  0.63019070  0.96112654  0.03423098     0.13000
H2277       H  0.66981493  0.98117921  0.02166611     0.12000
H2278       H  0.64751750  0.09114125  0.04213304     0.09100
H2279       H  0.68969867  0.10802263  0.03078314     0.12400
H2280       H  0.70118622  0.02203341  0.01533741     0.14300
N2281       N  0.95229703  0.48251541  0.08671625    -0.36600
N2282       N  0.50377449  0.95481488  0.10117153    -0.57100
N2283       N  0.54883697  0.97008817  0.08375764    -0.36600
N2284       N  0.49956019  0.50114333  0.06938291    -0.57100
C2285       C  0.94451710  0.97814113  0.09725149     0.27000
C2286       C  0.93620898  0.50194840  0.08024998     0.27000
C2287       C  0.56643930  0.96303122  0.09315671     0.27000
C2288       C  0.56274453  0.48701567  0.07519450     0.27000
C2289       C  0.98068801  0.94513901  0.10737334     0.35600
C2290       C  0.52724926  0.94072469  0.10609378     0.35600
C2291       C  0.97154952  0.50810062  0.06339982     0.35600
C2292       C  0.52188486  0.50119538  0.06130139     0.35600
C2293       C  0.91913904  0.99567310  0.09739183    -0.21800
C2294       C  0.91046585  0.50950400  0.08642027    -0.21800
C2295       C  0.59532999  0.97308144  0.09108113    -0.21800
C2296       C  0.59204127  0.48919252  0.07917434    -0.21800
C2297       C  0.98877434  0.92484087  0.11601679    -0.22900
C2298       C  0.51755582  0.92243794  0.11522483    -0.22900
C2299       C  0.97851157  0.51368036  0.05155745    -0.22900
C2300       C  0.51104302  0.50858458  0.05011043    -0.22900
C2301       C  0.95186206  0.95716361  0.10603493    -0.18300
C2302       C  0.94295886  0.51106464  0.06852094    -0.18300
C2303       C  0.55231579  0.49804390  0.06417266    -0.18200
C2304       C  0.55741635  0.94693873  0.10336847    -0.18200
H2305       H  0.90216790  0.99686499  0.10426638     0.14700
H2306       H  0.89286916  0.52416745  0.08351975     0.14700
H2307       H  0.61471314  0.97053021  0.09676083     0.14700
H2308       H  0.61073965  0.49959385  0.07468394     0.14700
H2309       H  0.97433876  0.91397504  0.12241643     0.12900
H2310       H  0.53108619  0.90906366  0.12109127     0.12900
H2311       H  0.96342336  0.52003885  0.04447157     0.12900
H2312       H  0.52367547  0.51107709  0.04192384     0.12900
H2313       H  0.97039971  0.47031780  0.08366437     0.26200
H2314       H  0.52710262  0.96284791  0.08221771     0.26200
C2315       C  0.72187243  0.58368511  0.00253952     0.02300
C2316       C  0.71960111  0.57801874  0.01497464     0.02300
C2317       C  0.74522013  0.57817016  0.02212005    -0.18200
C2318       C  0.77364862  0.58069471  0.01709614     0.02300
C2319       C  0.77644372  0.58623491  0.00476191     0.02300
C2320       C  0.75053513  0.58984649  0.99784922    -0.18200
H2321       H  0.75314959  0.59442446  0.98842019     0.04300
H2322       H  0.74320202  0.57310521  0.03155837     0.04300
O2323       O  0.78297740  0.91189812  0.17156873    -0.71700
O2324       O  0.72455180  0.88787311  0.19395002    -0.72000
O2325       O  0.78484082  0.88907042  0.19349336    -0.71800
O2326       O  0.72315082  0.91060134  0.17185495    -0.71800
O2327       O  0.72316080  0.86622767  0.16449195    -0.71800
O2328       O  0.78568953  0.84514163  0.18571828    -0.71800
O2329       O  0.72532721  0.84349928  0.18659048    -0.71700
O2330       O  0.78300658  0.86803293  0.16369141    -0.71900
V2331       V  0.75384154  0.89895866  0.18259324     1.35200
V2332       V  0.75426900  0.85652648  0.17530708     1.35200
C2333       C  0.79289992  0.89422226  0.16379869     0.77500
C2334       C  0.71461705  0.86173694  0.19401684     0.77600
C2335       C  0.79643935  0.86365475  0.19304666     0.77400
C2336       C  0.71284583  0.89216479  0.16438428     0.77400
N2337       N  0.53972356  0.50327885  0.93025912    -0.36600
N2338       N  0.99585554  0.52912181  0.94570237    -0.57100
N2339       N  0.94874283  0.50609967  0.93033550    -0.36600
N2340       N  0.99867394  0.97499934  0.91615822    -0.57100
C2341       C  0.55616309  0.51030353  0.94002226     0.27000
C2342       C  0.56093465  0.98118986  0.92480429     0.27000
C2343       C  0.93278752  0.51454444  0.94001735     0.27000
C2344       C  0.93687366  0.98459986  0.92443750     0.27000
C2345       C  0.52003190  0.54431448  0.94938447     0.35600
C2346       C  0.97228308  0.54483122  0.94967711     0.35600
C2347       C  0.52309461  0.97001334  0.90932481     0.35600
C2348       C  0.97445744  0.97103682  0.90912278     0.35600
C2349       C  0.58188264  0.49318163  0.94014980    -0.21800
C2350       C  0.58723963  0.97468863  0.93072391    -0.21800
C2351       C  0.90449337  0.50184132  0.93951892    -0.21800
C2352       C  0.90948007  0.98057137  0.93000125    -0.21800
C2353       C  0.51149963  0.56928788  0.95569892    -0.22900
C2354       C  0.98207190  0.56915066  0.95612394    -0.22900
C2355       C  0.51416577  0.96231201  0.89788117    -0.22900
C2356       C  0.98322135  0.96297430  0.89769301    -0.22900
C2357       C  0.54954892  0.53355833  0.94814746    -0.18300
C2358       C  0.55285297  0.97007962  0.91346762    -0.18300
C2359       C  0.94459363  0.97303567  0.91313008    -0.18200
C2360       C  0.94238924  0.53522161  0.94872867    -0.18200
H2361       H  0.59947965  0.49324415  0.94677661     0.14700
H2362       H  0.60441127  0.95935474  0.92795262     0.14700
H2363       H  0.88620042  0.50483475  0.94572899     0.14700
H2364       H  0.89081940  0.96737453  0.92686691     0.14700
H2365       H  0.52579540  0.58579024  0.95977272     0.12900
H2366       H  0.96859806  0.58549961  0.96065221     0.12900
H2367       H  0.52825859  0.95634082  0.89040037     0.12900
H2368       H  0.96902523  0.95805724  0.89011469     0.12900
H2369       H  0.52113530  0.51468286  0.92713985     0.26200
H2370       H  0.96922209  0.51479676  0.92765073     0.26200
O2371       O  0.77954946  0.87968678  0.85396331    -0.71700
O2372       O  0.71921542  0.85584923  0.83199680    -0.72000
O2373       O  0.77953543  0.85653360  0.83191868    -0.71800
O2374       O  0.71943461  0.87874321  0.85405252    -0.71800
O2375       O  0.71798706  0.92249966  0.84624346    -0.71800
O2376       O  0.78042717  0.90088755  0.82467078    -0.71800
O2377       O  0.71978875  0.89957896  0.82413748    -0.71700
O2378       O  0.77782048  0.92414800  0.84680641    -0.71900
V2379       V  0.74945991  0.86854370  0.84280079     1.35200
V2380       V  0.74904738  0.91090177  0.83556653     1.35200
C2381       C  0.78847689  0.90620845  0.85428579     0.77500
C2382       C  0.70870795  0.87387044  0.82449213     0.77600
C2383       C  0.79086480  0.87491950  0.82472895     0.77400
C2384       C  0.70831565  0.90434677  0.85393108     0.77400
O2385       O  0.53415147  0.59325926  0.70659130    -0.71700
O2386       O  0.53392114  0.53136825  0.68358291    -0.72000
O2387       O  0.53526796  0.59053258  0.68273365    -0.71800
O2388       O  0.53292394  0.53390883  0.70759724    -0.71800
O2389       O  0.98531056  0.53494065  0.70762543    -0.71800
O2390       O  0.98643709  0.59102425  0.68253647    -0.71800
O2391       O  0.98554117  0.53185756  0.68368366    -0.71700
O2392       O  0.98615457  0.59403485  0.70637563    -0.71900
V2393       V  0.53313635  0.56223306  0.69513257     1.35200
V2394       V  0.98682083  0.56290014  0.69507399     1.35200
C2395       C  0.01045924  0.60466994  0.71025789     0.77500
C2396       C  0.00967303  0.52137079  0.67963363     0.77600
C2397       C  0.01095148  0.60078570  0.67849567     0.77400
C2398       C  0.00932656  0.52478429  0.71189293     0.77400
N2399       N  0.01939302  0.85669653  0.59348461    -0.36600
N2400       N  0.01776523  0.81062361  0.57533750    -0.57100
N2401       N  0.01523261  0.76629370  0.59403821    -0.36600
N2402       N  0.01378828  0.81235638  0.61211341    -0.57100
C2403       C  0.01506134  0.87295625  0.58352752     0.27000
C2404       C  0.01211495  0.87389508  0.60294533     0.27000
C2405       C  0.01010942  0.74912160  0.58434734     0.27000
C2406       C  0.00868557  0.74998902  0.60379702     0.27000
C2407       C  0.02440359  0.83389806  0.56829687     0.35600
C2408       C  0.02173413  0.78620723  0.56857740     0.35600
C2409       C  0.01762626  0.83650934  0.61904990     0.35600
C2410       C  0.01654450  0.78875998  0.61936875     0.35600
C2411       C  0.00522762  0.90090330  0.58671388    -0.21800
C2412       C  0.00346253  0.90151861  0.59896506    -0.21800
C2413       C  0.00051221  0.72142857  0.58799946    -0.21800
C2414       C  0.99974150  0.72193197  0.60026823    -0.21800
C2415       C  0.03251886  0.82423746  0.55699574    -0.22900
C2416       C  0.03069381  0.79399370  0.55715969    -0.22900
C2417       C  0.02238983  0.82826009  0.63080430    -0.22900
C2418       C  0.02174322  0.79798537  0.63100506    -0.22900
C2419       C  0.02105355  0.86375801  0.57167565    -0.18300
C2420       C  0.01457589  0.86588516  0.61509426    -0.18300
C2421       C  0.01247808  0.75908663  0.61579529    -0.18200
C2422       C  0.01566525  0.75708805  0.57234285    -0.18200
H2423       H  0.99994554  0.91905405  0.58082828     0.14700
H2424       H  0.99667922  0.92024730  0.60432741     0.14700
H2425       H  0.99507842  0.70261542  0.58241663     0.14700
H2426       H  0.99357775  0.70356724  0.60592642     0.14700
H2427       H  0.03869632  0.83758461  0.54937754     0.12900
H2428       H  0.03523057  0.77941765  0.54970516     0.12900
H2429       H  0.02556734  0.84255344  0.63846583     0.12900
H2430       H  0.02429624  0.78436728  0.63885960     0.12900
H2431       H  0.02988103  0.83631800  0.59385580     0.26200
H2432       H  0.02591786  0.78663717  0.59404644     0.26200
C2433       C  0.01162154  0.53277527  0.51432327     0.02300
C2434       C  0.00186728  0.53267900  0.50228730     0.02300
C2435       C  0.99630060  0.55964875  0.49661858    -0.18200
C2436       C  0.99935396  0.58668855  0.50262030     0.02300
C2437       C  0.00881135  0.58687706  0.51465605     0.02300
C2438       C  0.01518774  0.55996729  0.52026712    -0.18200
H2439       H  0.02148485  0.56014666  0.52961849     0.04300
H2440       H  0.98957846  0.55958832  0.48731175     0.08300
C2441       C  0.00113791  0.78762293  0.76206912     0.86500
C2442       C  0.52640637  0.79137543  0.77107536    -0.53700
C2443       C  0.52564593  0.81738868  0.77727755     0.09500
C2444       C  0.99906745  0.83691141  0.77422627     0.20400
C2445       C  0.97255757  0.79123871  0.76963554    -0.54400
C2446       C  0.97126904  0.81717243  0.77588704     0.09600
C2447       C  0.00275701  0.81550464  0.75434736    -0.54000
C2448       C  0.00167419  0.84109773  0.76072646     0.10100
H2449       H  0.54422566  0.77544330  0.77221398     0.14600
H2450       H  0.99813322  0.85796337  0.77931355     0.00400
H2451       H  0.95478186  0.77495465  0.77011707     0.14900
H2452       H  0.00471505  0.81504799  0.74467675     0.14700
N2453       N  0.97997875  0.85370724  0.42433854    -0.36600
N2454       N  0.98231044  0.80922334  0.40552568    -0.57100
N2455       N  0.97614975  0.76312347  0.42339781    -0.36600
N2456       N  0.97703762  0.80778583  0.44227442    -0.57100
C2457       C  0.98766849  0.87067220  0.41490424     0.27000
C2458       C  0.98516065  0.86983601  0.43431588     0.27000
C2459       C  0.98268954  0.74661432  0.41363676     0.27000
C2460       C  0.98021753  0.74585552  0.43310619     0.27000
C2461       C  0.98050186  0.83359195  0.39864263     0.35600
C2462       C  0.97875272  0.78585671  0.39812575     0.35600
C2463       C  0.97300877  0.83146137  0.44945990     0.35600
C2464       C  0.97148779  0.78370598  0.44900550     0.35600
C2465       C  0.99755021  0.89800489  0.41891008    -0.21800
C2466       C  0.99601791  0.89746947  0.43116247    -0.21800
C2467       C  0.99024008  0.71830624  0.41718289    -0.21800
C2468       C  0.98887418  0.71788014  0.42944195    -0.21800
C2469       C  0.97619602  0.82567877  0.38679997    -0.22900
C2470       C  0.97523325  0.79543945  0.38646219    -0.22900
C2471       C  0.96492286  0.82241485  0.46082241    -0.22900
C2472       C  0.96393750  0.79212918  0.46053597    -0.22900
C2473       C  0.98438768  0.86284686  0.40275641    -0.18300
C2474       C  0.97881255  0.86096527  0.44614966    -0.18300
C2475       C  0.97545437  0.75422951  0.44517199    -0.18200
C2476       C  0.98089577  0.75598274  0.40159345    -0.18200
H2477       H  0.00491137  0.91650952  0.41355307     0.14700
H2478       H  0.00194115  0.91552838  0.43706545     0.14700
H2479       H  0.99620145  0.69979686  0.41155009     0.14700
H2480       H  0.99370610  0.69901341  0.43501167     0.14700
H2481       H  0.97438037  0.84015131  0.37916452     0.12900
H2482       H  0.97260775  0.78208569  0.37850079     0.12900
H2483       H  0.96071348  0.83617018  0.46855786     0.12900
H2484       H  0.95873119  0.77792277  0.46801389     0.12900
H2485       H  0.96855584  0.83375566  0.42391461     0.26200
H2486       H  0.96668165  0.78398406  0.42337873     0.26200
O2487       O  0.96130570  0.52933538  0.33567381    -0.71700
O2488       O  0.96438645  0.58340589  0.30995922    -0.72000
O2489       O  0.96288240  0.52413918  0.31184932    -0.71800
O2490       O  0.96288978  0.58838362  0.33378598    -0.71800
O2491       O  0.51049436  0.58639874  0.33439830    -0.71800
O2492       O  0.50897957  0.52329765  0.31196134    -0.71800
O2493       O  0.51082938  0.58238557  0.31052061    -0.71700
O2494       O  0.50862423  0.52721291  0.33587493    -0.71900
V2495       V  0.96380148  0.55628641  0.32280712     1.35200
V2496       V  0.50879936  0.55482051  0.32318272     1.35200
C2497       C  0.98501079  0.51868919  0.33999936     0.77500
C2498       C  0.98913839  0.59331546  0.30622564     0.77600
C2499       C  0.98718839  0.51326039  0.30811449     0.77400
C2500       C  0.98713176  0.59822745  0.33808873     0.77400
C2501       C  0.00333026  0.77564409  0.25525191     0.86500
C2502       C  0.97786503  0.78062005  0.24624879    -0.53700
C2503       C  0.97857354  0.80751695  0.24074850     0.09500
C2504       C  0.00546202  0.82679587  0.24453897     0.20400
C2505       C  0.53214140  0.77920900  0.24763799    -0.54400
C2506       C  0.53336610  0.80614448  0.24221728     0.09600
C2507       C  0.00198782  0.80225610  0.26377699    -0.54000
C2508       C  0.00309994  0.82887203  0.25816403     0.10100
H2509       H  0.96009600  0.76464986  0.24472659     0.14600
H2510       H  0.00647878  0.84859197  0.24004686     0.00400
H2511       H  0.54979874  0.76324462  0.24643634     0.14900
H2512       H  0.00005269  0.80021111  0.27341039     0.14700
C2513       C  0.99021404  0.61670953  0.29710018    -0.01300
C2514       C  0.96380252  0.63018734  0.29326363    -0.09300
C2515       C  0.96477655  0.65480841  0.28583846    -0.18100
C2516       C  0.99239940  0.66684173  0.28204895     0.04300
C2517       C  0.51616137  0.64778977  0.28379097     0.18500
C2518       C  0.51459227  0.62309163  0.29128833    -0.19500
C2519       C  0.54329402  0.65496521  0.27827120    -0.20800
C2520       C  0.54568426  0.67998918  0.27118603    -0.19300
C2521       C  0.52128911  0.69896418  0.26980057     0.19900
C2522       C  0.99459692  0.69341430  0.27530567     0.02000
C2523       C  0.96971654  0.71154173  0.27290426    -0.14100
C2524       C  0.97298246  0.73775200  0.26655165    -0.11800
C2525       C  0.00085192  0.74650724  0.26196779     0.01500
C2526       C  0.52484580  0.72499782  0.26317716    -0.24000
H2527       H  0.94222936  0.62223116  0.29629754     0.09500
H2528       H  0.94355024  0.66401306  0.28327794     0.13100
H2529       H  0.53454031  0.61021506  0.29296371     0.11800
H2530       H  0.56281568  0.64118248  0.27946775     0.13000
H2531       H  0.56700276  0.68495152  0.26702337     0.12000
H2532       H  0.94756613  0.70658307  0.27613904     0.09100
H2533       H  0.95342796  0.75138955  0.26524788     0.12400
H2534       H  0.54648477  0.72944007  0.25932043     0.14300
C2535       C  0.99439722  0.98878813  0.29909286    -0.01300
C2536       C  0.96892088  0.97965312  0.29280978    -0.09300
C2537       C  0.96962684  0.95461739  0.28550102    -0.18100
C2538       C  0.50442398  0.93530466  0.28606500     0.04300
C2539       C  0.52615508  0.93905385  0.29522222     0.18500
C2540       C  0.52638247  0.96480530  0.30227699    -0.19500
C2541       C  0.54711626  0.91683909  0.29742521    -0.20800
C2542       C  0.54681191  0.89081293  0.29078739    -0.19300
C2543       C  0.52603433  0.88667372  0.28157803     0.19900
C2544       C  0.50492279  0.90912333  0.27892798     0.02000
C2545       C  0.97242208  0.89925196  0.27120795    -0.14100
C2546       C  0.97455471  0.87269364  0.26492240    -0.11800
C2547       C  0.00138801  0.85710642  0.26464159     0.01500
C2548       C  0.52617741  0.86019828  0.27497969    -0.24000
H2549       H  0.94066602  0.47694065  0.30250018     0.09500
H2550       H  0.94908712  0.94902583  0.28099697     0.13100
H2551       H  0.54299493  0.96750760  0.30925435     0.11800
H2552       H  0.56360750  0.91944067  0.30444474     0.13000
H2553       H  0.56306784  0.87387689  0.29282309     0.12000
H2554       H  0.95093167  0.90988853  0.27107814     0.09100
H2555       H  0.95496138  0.86399233  0.26043331     0.12400
H2556       H  0.54211025  0.84301893  0.27711507     0.14300
C2557       C  0.98279898  0.73334147  0.39201114    -0.01300
C2558       C  0.51067269  0.72241056  0.38826042    -0.09300
C2559       C  0.51275678  0.70160469  0.37906598    -0.18100
C2560       C  0.48691119  0.69154036  0.37295723     0.04300
C2561       C  0.95865439  0.70253805  0.37695968     0.18500
C2562       C  0.95694047  0.72367911  0.38613897    -0.19500
C2563       C  0.93239572  0.69321095  0.37127391    -0.20800
C2564       C  0.93327716  0.67164710  0.36242538    -0.19300
C2565       C  0.96044960  0.65890080  0.35901858     0.19900
C2566       C  0.48776769  0.66955408  0.36375973     0.02000
C2567       C  0.51454071  0.65604616  0.35984916    -0.14100
C2568       C  0.51408014  0.63347424  0.35131399    -0.11800
C2569       C  0.98725242  0.62281798  0.34685183     0.01500
C2570       C  0.96048546  0.63635686  0.35036160    -0.24000
H2571       H  0.53082298  0.72967792  0.39278377     0.09500
H2572       H  0.53486620  0.69371607  0.37701476     0.13100
H2573       H  0.93547631  0.73271087  0.38875349     0.11800
H2574       H  0.91095178  0.70241452  0.37378924     0.13000
H2575       H  0.91248330  0.66464361  0.35830792     0.12000
H2576       H  0.53617711  0.66213980  0.36331381     0.09100
H2577       H  0.53502816  0.62336302  0.34873095     0.12400
H2578       H  0.93951423  0.62910641  0.34645270     0.14300
C2579       C  0.98761279  0.99687301  0.34888438    -0.01300
C2580       C  0.96077397  0.99139929  0.35493719    -0.09300
C2581       C  0.95931619  0.97030022  0.36396998    -0.18100
C2582       C  0.98478520  0.95366952  0.36717209     0.04300
C2583       C  0.52043366  0.95970306  0.36233702     0.18500
C2584       C  0.52232389  0.98137929  0.35343293    -0.19500
C2585       C  0.54588593  0.94333029  0.36522746    -0.20800
C2586       C  0.54451239  0.92135646  0.37384425    -0.19300
C2587       C  0.51773169  0.91544174  0.37985771     0.19900
C2588       C  0.98429619  0.93166167  0.37627496     0.02000
C2589       C  0.95861148  0.92543125  0.38323282    -0.14100
C2590       C  0.95901222  0.90335559  0.39187682    -0.11800
C2591       C  0.98481925  0.88683480  0.39382371     0.01500
C2592       C  0.51688729  0.89294520  0.38843890    -0.24000
H2593       H  0.94075108  0.00359129  0.35271617     0.09500
H2594       H  0.93783852  0.96734079  0.36816547     0.13100
H2595       H  0.52975591  0.48698716  0.34908660     0.11800
H2596       H  0.56695837  0.94738909  0.36072179     0.13000
H2597       H  0.56454088  0.90888955  0.37581648     0.12000
H2598       H  0.93790506  0.93723248  0.38225493     0.09100
H2599       H  0.93897030  0.89891605  0.39702110     0.12400
H2600       H  0.53672514  0.88008786  0.39033494     0.14300
C2601       C  0.97663714  0.73088291  0.45442762    -0.01300
C2602       C  0.95409144  0.70952557  0.45512314    -0.09300
C2603       C  0.95570928  0.68692540  0.46354011    -0.18100
C2604       C  0.98022183  0.68498539  0.47150736     0.04300
C2605       C  0.50075552  0.70562335  0.47008511     0.18500
C2606       C  0.49858159  0.72839006  0.46169055    -0.19500
C2607       C  0.52636263  0.70376337  0.47721339    -0.20800
C2608       C  0.52976440  0.68070236  0.48523652    -0.19300
C2609       C  0.50733446  0.65934001  0.48651426     0.19900
C2610       C  0.98329408  0.66178847  0.48002271     0.02000
C2611       C  0.96123450  0.63977187  0.48173004    -0.14100
C2612       C  0.96613009  0.61628599  0.48947951    -0.11800
C2613       C  0.99295924  0.61398352  0.49583110     0.01500
C2614       C  0.51187793  0.63564718  0.49434602    -0.24000
H2615       H  0.93526731  0.71026101  0.44904444     0.09500
H2616       H  0.93772341  0.67104081  0.46341978     0.13100
H2617       H  0.51642500  0.74455298  0.46086675     0.11800
H2618       H  0.54416666  0.71994434  0.47640779     0.13000
H2619       H  0.55014806  0.67949601  0.49044406     0.12000
H2620       H  0.94008319  0.63988237  0.47713225     0.09100
H2621       H  0.94907300  0.59936206  0.49032939     0.12400
H2622       H  0.53293058  0.63360490  0.49907175     0.14300
C2623       C  0.99676301  0.50529308  0.49524490    -0.01300
C2624       C  0.96573658  0.00008765  0.48992200    -0.09300
C2625       C  0.96156616  0.97571013  0.48247115    -0.18100
C2626       C  0.98525838  0.95597065  0.48008265     0.04300
C2627       C  0.51157631  0.96125874  0.48614399     0.18500
C2628       C  0.51752074  0.48438005  0.49381072    -0.19500
C2629       C  0.53612134  0.94278683  0.48422352    -0.20800
C2630       C  0.53395634  0.91879092  0.47650014    -0.19300
C2631       C  0.50716909  0.91260809  0.47052095     0.19900
C2632       C  0.98242719  0.93148340  0.47207156     0.02000
C2633       C  0.95579221  0.92503791  0.46571068    -0.14100
C2634       C  0.95453655  0.90169672  0.45755354    -0.11800
C2635       C  0.97950868  0.88392575  0.45559926     0.01500
C2636       C  0.50599966  0.88885978  0.46242961    -0.24000
H2637       H  0.94721972  0.01500938  0.49141664     0.09500
H2638       H  0.93962492  0.97315171  0.47863485     0.13100
H2639       H  0.53869798  0.48785972  0.49832554     0.11800
H2640       H  0.55742277  0.44208213  0.48998532     0.13000
H2641       H  0.55349290  0.90512508  0.47510044     0.12000
H2642       H  0.93572096  0.93789243  0.46666000     0.09100
H2643       H  0.93411655  0.89774170  0.45258437     0.12400
H2644       H  0.52572386  0.87559156  0.46079315     0.14300
C2645       C  0.01442287  0.73354175  0.56315999    -0.01300
C2646       C  0.98817496  0.72876392  0.55667391    -0.09300
C2647       C  0.98647394  0.70602832  0.54825602    -0.18100
C2648       C  0.51101768  0.68779539  0.54561243     0.04300
C2649       C  0.53779287  0.69260188  0.55222852     0.18500
C2650       C  0.53941183  0.71527592  0.56077334    -0.19500
C2651       C  0.56270242  0.67459161  0.55036520    -0.20800
C2652       C  0.56150455  0.65145358  0.54221119    -0.19300
C2653       C  0.53532876  0.64569028  0.53575708     0.19900
C2654       C  0.50974767  0.66389790  0.53726494     0.02000
C2655       C  0.98484718  0.65638057  0.53081935    -0.14100
C2656       C  0.98471975  0.63209274  0.52311370    -0.11800
C2657       C  0.01001429  0.61423968  0.52195299     0.01500
C2658       C  0.53439522  0.62135732  0.52797953    -0.24000
H2659       H  0.96882885  0.74258210  0.55822207     0.09500
H2660       H  0.96545514  0.70356980  0.54366023     0.13100
H2661       H  0.55972771  0.71871481  0.56589033     0.11800
H2662       H  0.58318993  0.67825983  0.55533281     0.13000
H2663       H  0.58108280  0.63770186  0.54106433     0.12000
H2664       H  0.96445395  0.66889895  0.53127818     0.09100
H2665       H  0.96445597  0.62677584  0.51825026     0.12400
H2666       H  0.55385409  0.60733076  0.52700922     0.14300
C2667       C  0.02226466  0.88668019  0.56225151    -0.01300
C2668       C  0.54380110  0.90767905  0.56207975    -0.09300
C2669       C  0.54364068  0.93048127  0.55374597    -0.18100
C2670       C  0.02226520  0.93304182  0.54532059     0.04300
C2671       C  0.99959228  0.91091382  0.54516547     0.18500
C2672       C  0.99995523  0.88791501  0.55352233    -0.19500
C2673       C  0.97619685  0.91232577  0.53690026    -0.20800
C2674       C  0.97412310  0.93590894  0.52905203    -0.19300
C2675       C  0.99575664  0.95829741  0.52910624     0.19900
C2676       C  0.02066582  0.95673847  0.53696845     0.02000
C2677       C  0.54022934  0.97915661  0.53614938    -0.14100
C2678       C  0.53636671  0.00300198  0.52848040    -0.11800
C2679       C  0.01608042  0.50534004  0.52133484     0.01500
C2680       C  0.99409629  0.48322990  0.52157204    -0.24000
H2681       H  0.56159359  0.90673151  0.56863123     0.09500
H2682       H  0.56170586  0.94620345  0.55436641     0.13100
H2683       H  0.98235735  0.87136460  0.55349633     0.11800
H2684       H  0.95893130  0.89546940  0.53671733     0.13000
H2685       H  0.95576348  0.43855823  0.52305883     0.12000
H2686       H  0.56048592  0.97912123  0.54134966     0.09100
H2687       H  0.55337324  0.02009590  0.52822284     0.12400
H2688       H  0.97418798  0.48551213  0.51614332     0.14300
C2689       C  0.01167272  0.62365710  0.66911721    -0.01300
C2690       C  0.54026035  0.63433774  0.66495928    -0.09300
C2691       C  0.54179604  0.65629769  0.65629632    -0.18100
C2692       C  0.01384428  0.66864623  0.65152981     0.04300
C2693       C  0.98597822  0.65739515  0.65566984     0.18500
C2694       C  0.98514005  0.63502305  0.66433141    -0.19500
C2695       C  0.95912794  0.66869220  0.65120955    -0.20800
C2696       C  0.95932080  0.69109002  0.64274672    -0.19300
C2697       C  0.98636726  0.70246038  0.63842092     0.19900
C2698       C  0.01406242  0.69121669  0.64266254     0.02000
C2699       C  0.54296852  0.70234097  0.63755791    -0.14100
C2700       C  0.54243919  0.72439350  0.62891356    -0.11800
C2701       C  0.01269625  0.73603675  0.62512402     0.01500
C2702       C  0.98594047  0.72489384  0.62979259    -0.24000
H2703       H  0.56093410  0.62600276  0.66866384     0.09500
H2704       H  0.56390269  0.66364353  0.65386914     0.13100
H2705       H  0.96375258  0.62664473  0.66742217     0.11800
H2706       H  0.93781044  0.66026994  0.65434497     0.13000
H2707       H  0.93815743  0.69947753  0.63951604     0.12000
H2708       H  0.56475558  0.69471786  0.64019530     0.09100
H2709       H  0.56333759  0.73275238  0.62534293     0.12400
H2710       H  0.96484465  0.73350686  0.62657199     0.14300
C2711       C  0.01265787  0.88946374  0.62424307    -0.01300
C2712       C  0.98499688  0.89700812  0.62914173    -0.09300
C2713       C  0.98306097  0.91851843  0.63805552    -0.18100
C2714       C  0.00901550  0.93300009  0.64239924     0.04300
C2715       C  0.53762877  0.92493915  0.63719242     0.18500
C2716       C  0.53928090  0.90351410  0.62812727    -0.19500
C2717       C  0.56387159  0.93885586  0.64108035    -0.20800
C2718       C  0.56300634  0.95989168  0.65012951    -0.19300
C2719       C  0.53585653  0.96764953  0.65548630     0.19900
C2720       C  0.00823900  0.95481687  0.65164476     0.02000
C2721       C  0.98143289  0.96417547  0.65717008    -0.14100
C2722       C  0.98174572  0.98562586  0.66614348    -0.11800
C2723       C  0.00922518  0.49813071  0.67031667     0.01500
C2724       C  0.53571770  0.98911101  0.66457751    -0.24000
H2725       H  0.96482318  0.88604354  0.62607608     0.09500
H2726       H  0.96098504  0.92308896  0.64141553     0.13100
H2727       H  0.56068065  0.89785325  0.62419158     0.11800
H2728       H  0.58526649  0.93334842  0.63712086     0.13000
H2729       H  0.58375409  0.97020963  0.65295057     0.12000
H2730       H  0.95981653  0.95548666  0.65473724     0.09100
H2731       H  0.96116543  0.49262115  0.67058067     0.12400
H2732       H  0.55657442  0.99937182  0.66731707     0.14300
C2733       C  0.01032262  0.63028524  0.71844931    -0.01300
C2734       C  0.53643648  0.64285315  0.72234184    -0.09300
C2735       C  0.53624259  0.66830199  0.72941384    -0.18100
C2736       C  0.00957727  0.68210311  0.73278084     0.04300
C2737       C  0.98250317  0.66807057  0.72922768     0.18500
C2738       C  0.98312312  0.64253712  0.72214470    -0.19500
C2739       C  0.95487870  0.67969509  0.73267705    -0.20800
C2740       C  0.95348902  0.70494436  0.73969609    -0.19300
C2741       C  0.97968580  0.71935649  0.74333507     0.19900
C2742       C  0.00810042  0.70848759  0.73977013     0.02000
C2743       C  0.53343817  0.72423503  0.74330974    -0.14100
C2744       C  0.53104191  0.74954563  0.75036790    -0.11800
C2745       C  0.00322143  0.75973171  0.75445675     0.01500
C2746       C  0.97750436  0.74472451  0.75049166    -0.24000
H2747       H  0.55772374  0.63309967  0.71998481     0.09500
H2748       H  0.55771975  0.67647067  0.73230664     0.13100
H2749       H  0.96223225  0.63239693  0.71936961     0.11800
H2750       H  0.93417379  0.66909111  0.72997724     0.13000
H2751       H  0.93173754  0.71325323  0.74230358     0.12000
H2752       H  0.55573302  0.71776844  0.74078850     0.09100
H2753       H  0.55137868  0.76120154  0.75272461     0.12400
H2754       H  0.95552003  0.75292898  0.75271378     0.14300
C2755       C  0.00739469  0.00075382  0.72063768    -0.01300
C2756       C  0.53452816  0.99033414  0.72529634    -0.09300
C2757       C  0.53470307  0.96607195  0.73294723    -0.18100
C2758       C  0.00729196  0.95122321  0.73608092     0.04300
C2759       C  0.98014831  0.96234645  0.73128811     0.18500
C2760       C  0.98043088  0.98695338  0.72374020    -0.19500
C2761       C  0.95292218  0.94827098  0.73370188    -0.20800
C2762       C  0.95209854  0.92262643  0.74043457    -0.19300
C2763       C  0.97849425  0.91039396  0.74486350     0.19900
C2764       C  0.00649719  0.92468319  0.74292103     0.02000
C2765       C  0.53303491  0.91006854  0.74667761    -0.14100
C2766       C  0.53108333  0.88297858  0.75252886    -0.11800
C2767       C  0.00320206  0.87018528  0.75507939     0.01500
C2768       C  0.97712046  0.88345901  0.75096255    -0.24000
H2769       H  0.55569846  0.00005807  0.72267333     0.09500
H2770       H  0.55630665  0.95874047  0.73595522     0.13100
H2771       H  0.95963035  0.99462125  0.71988539     0.11800
H2772       H  0.93215645  0.95682102  0.73014684     0.13000
H2773       H  0.93071977  0.91191948  0.74196321     0.12000
H2774       H  0.55525105  0.91830903  0.74496339     0.09100
H2775       H  0.55139914  0.87163071  0.75505418     0.12400
H2776       H  0.95581502  0.87239180  0.75228767     0.14300
C2777       C  0.94502110  0.82540536  0.78329319    -0.01300
C2778       C  0.93082350  0.80415923  0.79037242    -0.09300
C2779       C  0.90547351  0.81119456  0.79704230    -0.18100
C2780       C  0.89317738  0.83991842  0.79679075     0.04300
C2781       C  0.90774988  0.86150438  0.78962851     0.18500
C2782       C  0.93349886  0.85413302  0.78301772    -0.19500
C2783       C  0.89648372  0.89027321  0.78910268    -0.20800
C2784       C  0.87125194  0.89820687  0.79565928    -0.19300
C2785       C  0.85647725  0.87753816  0.80286197     0.19900
C2786       C  0.86709574  0.84800834  0.80343389     0.02000
C2787       C  0.85117000  0.82785012  0.81066915    -0.14100
C2788       C  0.82632846  0.83673635  0.81726468    -0.11800
C2789       C  0.81621019  0.86595870  0.81693475     0.01500
C2790       C  0.83127383  0.88624298  0.80958798    -0.24000
H2791       H  0.93952986  0.78191423  0.79083222     0.09500
H2792       H  0.89609904  0.79358542  0.80230191     0.13100
H2793       H  0.94422095  0.87062425  0.77745401     0.11800
H2794       H  0.90738820  0.90683405  0.78363684     0.13000
H2795       H  0.86328879  0.92072337  0.79512071     0.12000
H2796       H  0.85735684  0.80501031  0.81150181     0.09100
H2797       H  0.81514860  0.82050326  0.82279095     0.12400
H2798       H  0.82367518  0.90891506  0.80923085     0.14300
C2799       C  0.68308236  0.86563507  0.81677257    -0.01300
C2800       C  0.67016033  0.88652426  0.80917217    -0.09300
C2801       C  0.64418141  0.87991116  0.80276190    -0.18100
C2802       C  0.63015362  0.85198425  0.80375452     0.04300
C2803       C  0.64398414  0.83051055  0.81113698     0.18500
C2804       C  0.67004106  0.83751624  0.81757282    -0.19500
C2805       C  0.63163031  0.80219506  0.81212754    -0.20800
C2806       C  0.60590830  0.79459145  0.80585442    -0.19300
C2807       C  0.59154274  0.81529607  0.79862702     0.19900
C2808       C  0.60309454  0.84447915  0.79763596     0.02000
C2809       C  0.58693497  0.86484712  0.79061311    -0.14100
C2810       C  0.56116057  0.85622386  0.78446305    -0.11800
C2811       C  0.55072782  0.82710540  0.78503340     0.01500
C2812       C  0.56578202  0.80686932  0.79228746    -0.24000
H2813       H  0.67983119  0.90838041  0.80833937     0.09500
H2814       H  0.63564044  0.89714052  0.79711550     0.13100
H2815       H  0.67990660  0.82111252  0.82337977     0.11800
H2816       H  0.64208455  0.78571106  0.81772230     0.13000
H2817       H  0.59712444  0.77236155  0.80669628     0.12000
H2818       H  0.59367316  0.88757207  0.78965273     0.09100
H2819       H  0.54999342  0.87223971  0.77888493     0.12400
H2820       H  0.55751359  0.78439751  0.79293555     0.14300
C2821       C  0.92013681  0.96325197  0.90507131    -0.01300
C2822       C  0.89950798  0.98385272  0.90088260    -0.09300
C2823       C  0.87704839  0.97543929  0.89292686    -0.18100
C2824       C  0.87459800  0.94591220  0.88887291     0.04300
C2825       C  0.89516637  0.92491345  0.89345856     0.18500
C2826       C  0.91768607  0.93374304  0.90146576    -0.19500
C2827       C  0.89329162  0.89529796  0.88994980    -0.20800
C2828       C  0.87153339  0.88603365  0.88188821    -0.19300
C2829       C  0.85136996  0.90622989  0.87701106     0.19900
C2830       C  0.85267177  0.93651005  0.88038697     0.02000
C2831       C  0.83232008  0.95613037  0.87494341    -0.14100
C2832       C  0.81179508  0.94613456  0.86646487    -0.11800
C2833       C  0.81045442  0.91628796  0.86325332     0.01500
C2834       C  0.83011151  0.89637183  0.86864359    -0.24000
H2835       H  0.89615413  0.50984775  0.90255648     0.09500
H2836       H  0.86205596  0.99260278  0.89011095     0.13100
H2837       H  0.93354147  0.91775795  0.90484312     0.11800
H2838       H  0.90881263  0.87917898  0.89344980     0.13000
H2839       H  0.87069648  0.86294618  0.87934174     0.12000
H2840       H  0.83192982  0.97941500  0.87689147     0.09100
H2841       H  0.79667823  0.96188924  0.86245761     0.12400
H2842       H  0.82927749  0.87324463  0.86613486     0.14300
C2843       C  0.68486533  0.91280792  0.86266021    -0.01300
C2844       C  0.67238866  0.89171886  0.87035776    -0.09300
C2845       C  0.65088367  0.89966560  0.87884279    -0.18100
C2846       C  0.64119912  0.92923171  0.87997434     0.04300
C2847       C  0.65382262  0.95047741  0.87208300     0.18500
C2848       C  0.67523257  0.94211739  0.86353586    -0.19500
C2849       C  0.64521442  0.98007295  0.87280763    -0.20800
C2850       C  0.62442069  0.98918745  0.88124659    -0.19300
C2851       C  0.61157601  0.96892802  0.88914925     0.19900
C2852       C  0.61960828  0.93858700  0.88863960     0.02000
C2853       C  0.60555566  0.91908421  0.89680254    -0.14100
C2854       C  0.58429367  0.92933727  0.90499345    -0.11800
C2855       C  0.57668040  0.95921439  0.90537145     0.01500
C2856       C  0.59046565  0.97889124  0.89750167    -0.24000
H2857       H  0.67935014  0.86887653  0.86986005     0.09500
H2858       H  0.64245307  0.88220980  0.88444046     0.13100
H2859       H  0.68473729  0.95864313  0.85764982     0.11800
H2860       H  0.65474022  0.99635768  0.86682494     0.13000
H2861       H  0.61637893  0.51452687  0.88246297     0.12000
H2862       H  0.61028041  0.89579210  0.89699856     0.09100
H2863       H  0.57353452  0.91388063  0.91099657     0.12400
H2864       H  0.58079346  0.50381329  0.89810910     0.14300
C2865       C  0.82264334  0.85606486  0.20054060    -0.01300
C2866       C  0.83558562  0.87708873  0.20817875    -0.09300
C2867       C  0.86152655  0.87064588  0.21462803    -0.18100
C2868       C  0.87550257  0.84277332  0.21362670     0.04300
C2869       C  0.86187193  0.82132558  0.20606659     0.18500
C2870       C  0.83585940  0.82813567  0.19962400    -0.19500
C2871       C  0.87431505  0.79317025  0.20492726    -0.20800
C2872       C  0.89986412  0.78563628  0.21125658    -0.19300
C2873       C  0.91389104  0.80620203  0.21875161     0.19900
C2874       C  0.90229390  0.83525539  0.21989964     0.02000
C2875       C  0.91814281  0.85543493  0.22723492    -0.14100
C2876       C  0.94365512  0.84673068  0.23350609    -0.11800
C2877       C  0.95397659  0.81764277  0.23283917     0.01500
C2878       C  0.93930452  0.79768990  0.22522766    -0.24000
H2879       H  0.82583618  0.89882887  0.20907545     0.09500
H2880       H  0.87006668  0.88792698  0.22032757     0.13100
H2881       H  0.82605741  0.81164124  0.19376374     0.11800
H2882       H  0.86404703  0.77673653  0.19917372     0.13000
H2883       H  0.90870028  0.76351452  0.21029143     0.12000
H2884       H  0.91136515  0.87807535  0.22833184     0.09100
H2885       H  0.95474589  0.86269674  0.23919131     0.12400
H2886       H  0.94755915  0.77530455  0.22441402     0.14300
C2887       C  0.55956323  0.81547400  0.23502677    -0.01300
C2888       C  0.57116565  0.84404253  0.23617036    -0.09300
C2889       C  0.59725554  0.85224790  0.23014040    -0.18100
C2890       C  0.61251966  0.83198258  0.22268213     0.04300
C2891       C  0.60023298  0.80315874  0.22140777     0.18500
C2892       C  0.57411449  0.79522464  0.22756066    -0.19500
C2893       C  0.61401276  0.78237506  0.21398014    -0.20800
C2894       C  0.63958263  0.78971998  0.20758901    -0.19300
C2895       C  0.65217723  0.81792881  0.20856916     0.19900
C2896       C  0.63918082  0.83933972  0.21628925     0.02000
C2897       C  0.65330088  0.86723727  0.21715695    -0.14100
C2898       C  0.67831112  0.87400269  0.21021598    -0.11800
C2899       C  0.69021690  0.85324320  0.20224369     0.01500
C2900       C  0.67740805  0.82501730  0.20166910    -0.24000
H2901       H  0.56048991  0.85992181  0.24201390     0.09500
H2902       H  0.60485067  0.87459656  0.23150083     0.13100
H2903       H  0.56499180  0.77316163  0.22649724     0.11800
H2904       H  0.60475288  0.76035270  0.21300381     0.13000
H2905       H  0.64946970  0.77326116  0.20177412     0.12000
H2906       H  0.64539323  0.88443854  0.22300573     0.09100
H2907       H  0.68797797  0.89589914  0.21092674     0.12400
H2908       H  0.68658742  0.80871283  0.19559491     0.14300
C2909       C  0.92100254  0.54436985  0.95812171    -0.01300
C2910       C  0.91345321  0.52424231  0.96705381    -0.09300
C2911       C  0.89212496  0.53128577  0.97563402    -0.18100
C2912       C  0.87766434  0.55898619  0.97555121     0.04300
C2913       C  0.88678904  0.58005586  0.96687817     0.18500
C2914       C  0.90805633  0.57244963  0.95814844    -0.19500
C2915       C  0.87426969  0.60833411  0.96687982    -0.20800
C2916       C  0.85208495  0.61582626  0.97506353    -0.19300
C2917       C  0.84137271  0.59498016  0.98323707     0.19900
C2918       C  0.85413074  0.56627237  0.98361635     0.02000
C2919       C  0.84176600  0.54554636  0.99163571    -0.14100
C2920       C  0.81737795  0.55276384  0.99873445    -0.11800
C2921       C  0.80489643  0.58098671  0.99837647     0.01500
C2922       C  0.81710541  0.60216926  0.99068947    -0.24000
H2923       H  0.92743853  0.99950631  0.96779451     0.09500
H2924       H  0.88756207  0.51456121  0.98220631     0.13100
H2925       H  0.91434811  0.58816511  0.95129982     0.11800
H2926       H  0.88143491  0.62465587  0.96041594     0.13000
H2927       H  0.84255950  0.63776694  0.97473556     0.12000
H2928       H  0.84947352  0.52312547  0.99227134     0.09100
H2929       H  0.80738373  0.53568077  0.00419366     0.12400
H2930       H  0.80691030  0.62380604  0.99018330     0.14300
C2931       C  0.69607002  0.57978006  0.99405568    -0.01300
C2932       C  0.70113535  0.56763828  0.98265012    -0.09300
C2933       C  0.67775341  0.56316384  0.97461937    -0.18100
C2934       C  0.64795518  0.56868856  0.97799456     0.04300
C2935       C  0.64238265  0.57877097  0.98977157     0.18500
C2936       C  0.66637746  0.58639182  0.99729028    -0.19500
C2937       C  0.61294674  0.58004323  0.99406217    -0.20800
C2938       C  0.58922953  0.57013479  0.98699375    -0.19300
C2939       C  0.59417296  0.56149767  0.97512564     0.19900
C2940       C  0.62341227  0.56287404  0.97026972     0.02000
C2941       C  0.62687792  0.55885963  0.95785949    -0.14100
C2942       C  0.60243483  0.55159911  0.95069789    -0.11800
C2943       C  0.57425051  0.54595742  0.95575065     0.01500
C2944       C  0.57027898  0.55135929  0.96804376    -0.24000
H2945       H  0.72327406  0.56088642  0.97989290     0.09500
H2946       H  0.68332672  0.55349041  0.96608251     0.13100
H2947       H  0.66158010  0.59687333  0.00573832     0.11800
H2948       H  0.60843332  0.58723202  0.00312438     0.13000
H2949       H  0.56686923  0.56983583  0.99073144     0.12000
H2950       H  0.64812283  0.56214302  0.95345810     0.09100
H2951       H  0.60586154  0.54922263  0.94116796     0.12400
H2952       H  0.54869748  0.54745112  0.97216004     0.14300
C2953       C  0.81571131  0.90417500  0.15521693    -0.01300
C2954       C  0.83136197  0.93043296  0.15739535    -0.09300
C2955       C  0.85339411  0.94014243  0.14956003    -0.18100
C2956       C  0.86045397  0.92385700  0.13916480     0.04300
C2957       C  0.84404307  0.89748206  0.13684734     0.18500
C2958       C  0.82204748  0.88780005  0.14490304    -0.19500
C2959       C  0.84977117  0.88089724  0.12654099    -0.20800
C2960       C  0.87173926  0.88977261  0.11852084    -0.19300
C2961       C  0.88863628  0.91529871  0.12067586     0.19900
C2962       C  0.88326205  0.93275573  0.13103220     0.02000
C2963       C  0.90121022  0.95819435  0.13286139    -0.14100
C2964       C  0.92355579  0.96583240  0.12477468    -0.11800
C2965       C  0.92848181  0.94860121  0.11463724     0.01500
C2966       C  0.91106034  0.92345150  0.11256459    -0.24000
H2967       H  0.82680233  0.94349099  0.16530540     0.09500
H2968       H  0.86438977  0.96051044  0.15192819     0.13100
H2969       H  0.80976769  0.86757448  0.14311508     0.11800
H2970       H  0.83723899  0.86087278  0.12468944     0.13000
H2971       H  0.87572511  0.87643767  0.11063036     0.12000
H2972       H  0.89880896  0.97254917  0.14047438     0.09100
H2973       H  0.93703561  0.98536820  0.12638824     0.12400
H2974       H  0.91513010  0.91023134  0.10464074     0.14300
C2975       C  0.58042090  0.93927466  0.11236102    -0.01300
C2976       C  0.59100974  0.96112368  0.12012567    -0.09300
C2977       C  0.61268061  0.95464747  0.12865907    -0.18100
C2978       C  0.62429162  0.92577889  0.12976059     0.04300
C2979       C  0.61330907  0.90364581  0.12181984     0.18500
C2980       C  0.59162023  0.91058989  0.11319527    -0.19500
C2981       C  0.62399672  0.87473072  0.12255362    -0.20800
C2982       C  0.64535749  0.86722016  0.13102518    -0.19300
C2983       C  0.65656416  0.88843038  0.13898531     0.19900
C2984       C  0.64625096  0.91804384  0.13847121     0.02000
C2985       C  0.65832704  0.93856040  0.14673349    -0.14100
C2986       C  0.67962122  0.93000332  0.15513632    -0.11800
C2987       C  0.68971167  0.90081982  0.15561419     0.01500
C2988       C  0.67806386  0.88014986  0.14748110    -0.24000
H2989       H  0.58244354  0.98341054  0.11953588     0.09500
H2990       H  0.61972832  0.97271000  0.13427366     0.13100
H2991       H  0.58330273  0.89372085  0.10714523     0.11800
H2992       H  0.61574384  0.85777462  0.11653837     0.13000
H2993       H  0.65314080  0.84461422  0.13136587     0.12000
H2994       H  0.65182915  0.96141366  0.14696010     0.09100
H2995       H  0.68833143  0.94645099  0.16126860     0.12400
H2996       H  0.68576538  0.85749867  0.14773834     0.14300
C2997       C  0.91847164  0.52308931  0.06113660    -0.01300
C2998       C  0.91841980  0.55267861  0.05763635    -0.09300
C2999       C  0.89543380  0.56357092  0.05045844    -0.18100
C3000       C  0.87184567  0.54493513  0.04657233     0.04300
C3001       C  0.87209241  0.51495988  0.05035707     0.18500
C3002       C  0.89527316  0.50441479  0.05753732    -0.19500
C3003       C  0.84923991  0.49557009  0.04695751    -0.20800
C3004       C  0.82580524  0.50530069  0.03992739    -0.19300
C3005       C  0.82487591  0.53455237  0.03602320     0.19900
C3006       C  0.84799394  0.55481758  0.03912111     0.02000
C3007       C  0.84620727  0.58389740  0.03453208    -0.14100
C3008       C  0.82229345  0.59238776  0.02726698    -0.11800
C3009       C  0.79943788  0.57234879  0.02457303     0.01500
C3010       C  0.80083706  0.54358016  0.02897988    -0.24000
H3011       H  0.93629362  0.56733104  0.06045410     0.09500
H3012       H  0.89670790  0.58659623  0.04812882     0.13100
H3013       H  0.89546781  0.48149074  0.06031284     0.11800
H3014       H  0.84939192  0.47273678  0.04982084     0.13000
H3015       H  0.80828346  0.48979921  0.03750504     0.12000
H3016       H  0.86302154  0.60043913  0.03630188     0.09100
H3017       H  0.82146339  0.61469005  0.02382780     0.12400
H3018       H  0.78319896  0.52801487  0.02671948     0.14300
C3019       C  0.57433122  0.51059977  0.05580657    -0.01300
C3020       C  0.57862755  0.54110196  0.05559234    -0.09300
C3021       C  0.60043970  0.55350168  0.04830120    -0.18100
C3022       C  0.61870590  0.53549799  0.04101902     0.04300
C3023       C  0.61287460  0.50460177  0.04076301     0.18500
C3024       C  0.59099637  0.49238214  0.04826669    -0.19500
C3025       C  0.62915611  0.48615064  0.03314148    -0.20800
C3026       C  0.65159338  0.49767429  0.02590972    -0.19300
C3027       C  0.65889311  0.52771657  0.02644721     0.19900
C3028       C  0.64275117  0.54702655  0.03411329     0.02000
C3029       C  0.65227154  0.57677510  0.03497166    -0.14100
C3030       C  0.67690932  0.58680087  0.02855220    -0.11800
C3031       C  0.69205543  0.56786660  0.02081387     0.01500
C3032       C  0.68298946  0.53843731  0.01970108    -0.24000
H3033       H  0.56529110  0.55532562  0.06126377     0.09500
H3034       H  0.60236366  0.57720053  0.04855027     0.13100
H3035       H  0.58703132  0.46875160  0.04834531     0.11800
H3036       H  0.62456555  0.46265424  0.03279855     0.13000
H3037       H  0.66389540  0.48285103  0.02011411     0.12000
H3038       H  0.64196158  0.59255864  0.04087054     0.09100
H3039       H  0.68434974  0.60943616  0.02965422     0.12400
H3040       H  0.69551757  0.52369537  0.01393552     0.14300
loop_ 
_geom_bond_atom_site_label_1 
_geom_bond_atom_site_label_2 
_geom_bond_distance 
_geom_bond_site_symmetry_2 
_ccdc_geom_bond_type 
N1            C6   1.352   1_565  A
N1          C765   1.350       .  A
N1           H33   1.040       .  S
N2           C10   1.349   1_655  A
N2         C1529   1.349       .  A
N3            C7   1.354       .  A
N3          C768   1.351       .  A
N3           H34   1.039       .  S
N4           C12   1.347   1_565  A
N4         C1531   1.350   1_465  A
C5          N761   1.349       .  A
C5           C13   1.388       .  A
C5           C21   1.410       .  A
C6           C22   1.411       .  A
C6           C14   1.386       .  A
C7           C15   1.388       .  A
C7           C24   1.415       .  A
C8          N763   1.352       .  A
C8           C23   1.413       .  A
C8           C16   1.387       .  A
C9         N1522   1.349       .  A
C9           C21   1.409       .  A
C9           C17   1.386       .  A
C10          C24   1.410       .  A
C10          C18   1.386       .  A
C11        N1524   1.350   1_545  A
C11          C19   1.386       .  A
C11          C22   1.408       .  A
C12          C20   1.386       .  A
C12          C23   1.406   1_545  A
C13         C774   1.374       .  A
C13          H25   1.082       .  S
C14         C773   1.374   1_545  A
C14          H26   1.082       .  S
C15         C776   1.374       .  A
C15          H27   1.082       .  S
C16         C775   1.374       .  A
C16          H28   1.082       .  S
C17        C1538   1.372       .  A
C17          H29   1.082       .  S
C18        C1537   1.373   1_455  A
C18          H30   1.082       .  S
C19        C1540   1.372       .  A
C19          H31   1.082       .  S
C20        C1539   1.372   1_455  A
C20          H32   1.082       .  S
C21         C685   1.473       .  S
C22         C717   1.482       .  S
C23         C739   1.473   1_565  S
C24         C695   1.481       .  S
C35          C36   1.421       .  A
C35          C40   1.412   1_554  A
C35         C651   1.506   1_554  S
C36          C37   1.398       .  A
C36         C751   1.468       .  S
C37          C38   1.396       .  A
C37          H42   1.086       .  S
C38          C39   1.410       .  A
C38         C729   1.480       .  S
C39          C40   1.403   1_554  A
C39         C641   1.479   1_554  S
C40          H41   1.083       .  S
O43          V51   1.892       .  S
O43          C53   1.263       .  A
O44          V51   1.894       .  S
O44          C54   1.264       .  A
O45          V51   1.903       .  S
O45          C55   1.265       .  A
O46          V51   1.901       .  S
O46          C56   1.266       .  A
O47          V52   1.896       .  S
O47          C56   1.264       .  A
O48          V52   1.895       .  S
O48          C55   1.265       .  A
O49          V52   1.900       .  S
O49          C54   1.265       .  A
O50          V52   1.898       .  S
O50          C53   1.264       .  A
V51          V52   2.086       .  T
C53         C673   1.473       .  S
C54         C619   1.478       .  S
C55         C585   1.480       .  S
C56         C707   1.480       .  S
N57          C61   1.354       .  A
N57         C822   1.353   1_545  A
N57          H89   1.041       .  S
N58          C66   1.349       .  A
N58        C1585   1.350       .  A
N59          C63   1.353       .  A
N59         C824   1.352   1_545  A
N59          H90   1.040       .  S
N60          C68   1.351       .  A
N60        C1587   1.351       .  A
C61          C69   1.390   1_545  A
C61          C77   1.422       .  A
C62         N817   1.353       .  A
C62          C78   1.410       .  A
C62          C70   1.384       .  A
C63          C71   1.389   1_545  A
C63          C80   1.416       .  A
C64         N819   1.352       .  A
C64          C79   1.412       .  A
C64          C72   1.385       .  A
C65        N1578   1.350       .  A
C65          C77   1.416       .  A
C65          C73   1.387       .  A
C66          C80   1.409       .  A
C66          C74   1.385       .  A
C67        N1580   1.351   1_455  A
C67          C75   1.386       .  A
C67          C78   1.410       .  A
C68          C76   1.387       .  A
C68          C79   1.412       .  A
C69         C830   1.377       .  A
C69          H81   1.082       .  S
C70         C829   1.377       .  A
C70          H82   1.082       .  S
C71         C832   1.376       .  A
C71          H83   1.082   1_565  S
C72         C831   1.376       .  A
C72          H84   1.082       .  S
C73        C1594   1.374   1_455  A
C73          H85   1.082       .  S
C74        C1593   1.374       .  A
C74          H86   1.082       .  S
C75        C1596   1.373   1_455  A
C75          H87   1.082       .  S
C76        C1595   1.374       .  A
C76          H88   1.082       .  S
C77         C663   1.500       .  S
C78         C575   1.482       .  S
C79         C541   1.485       .  S
C80         C629   1.481       .  S
O91          V99   1.904       .  S
O91         C101   1.266       .  A
O92          V99   1.904       .  S
O92         C102   1.266       .  A
O93          V99   1.894       .  S
O93         C103   1.264       .  A
O94          V99   1.897       .  S
O94         C104   1.264       .  A
O95         V100   1.907       .  S
O95         C104   1.267       .  A
O96         V100   1.912       .  S
O96         C103   1.267       .  A
O97         V100   1.899       .  S
O97         C102   1.265       .  A
O98         V100   1.896       .  S
O98         C101   1.264       .  A
V99         V100   2.086       .  T
C101        C553   1.479       .  S
C102        C519   1.483       .  S
C103        C509   1.486       .  S
C104        C563   1.483       .  S
O105        V113   1.900       .  S
O105       C1635   1.265       .  A
O106        V113   1.902       .  S
O106       C1636   1.266       .  A
O107        V113   1.892       .  S
O107       C1637   1.264       .  A
O108        V113   1.897       .  S
O108       C1638   1.264       .  A
O109        V114   1.898       .  S
O109        C118   1.265       .  A
O110        V114   1.902       .  S
O110        C117   1.265       .  A
O111        V114   1.898       .  S
O111        C116   1.265       .  A
O112        V114   1.896       .  S
O112        C115   1.264       .  A
V113       V1634   2.087   1_455  T
V114       V1633   2.086       .  T
C115        C453   1.479       .  S
C115       O1625   1.265       .  A
C116        C443   1.482   1_545  S
C116       O1626   1.266       .  A
C117        C409   1.477       .  S
C117       O1627   1.263       .  A
C118       C1235   1.477       .  S
C118       O1628   1.264       .  A
N119        C124   1.354       .  A
N119        C123   1.353       .  A
N119        H151   1.038       .  S
N120        C127   1.350       .  A
N120        C128   1.351       .  A
N121        C126   1.352       .  A
N121        C125   1.352       .  A
N121        H152   1.036       .  S
N122        C129   1.350       .  A
N122        C130   1.351       .  A
C123        C131   1.388       .  A
C123        C139   1.416       .  A
C124        C140   1.414       .  A
C124        C132   1.387       .  A
C125        C133   1.387       .  A
C125        C142   1.414       .  A
C126        C141   1.414       .  A
C126        C134   1.387       .  A
C127        C139   1.412       .  A
C127        C135   1.387       .  A
C128        C142   1.411       .  A
C128        C136   1.386       .  A
C129        C137   1.387       .  A
C129        C140   1.411       .  A
C130        C138   1.386       .  A
C130        C141   1.412       .  A
C131        C132   1.374       .  A
C131        H143   1.082       .  S
C132        H144   1.082       .  S
C133        C134   1.374       .  A
C133        H145   1.082       .  S
C134        H146   1.082       .  S
C135        C136   1.372       .  A
C135        H147   1.082       .  S
C136        H148   1.082       .  S
C137        C138   1.371       .  A
C137        H149   1.082       .  S
C138        H150   1.082       .  S
C139        C387   1.483       .  S
C140        C431   1.480       .  S
C141        C421   1.478       .  S
C142        C365   1.479       .  S
C153        C154   1.416       .  A
C153        C158   1.405       .  A
C153        C399   1.484       .  S
C154        C155   1.401       .  A
C154        C343   1.484       .  S
C155        C156   1.402       .  A
C155        H160   1.085       .  S
C156        C157   1.412       .  A
C156        C333   1.479       .  S
C157        C158   1.401       .  A
C157        C377   1.482       .  S
C158        H159   1.085       .  S
C161        C167   1.538       .  S
C161        C165   1.543       .  S
C161       C1682   1.540       .  S
C161        C465   1.529       .  S
C162       C1681   1.539   1_455  S
C162        H169   1.086       .  S
C162        C163   1.367       .  D
C163       C1684   1.542   1_455  S
C163        C531   1.485       .  S
C164        C168   1.528       .  S
C164        C166   1.539       .  S
C164       C1683   1.542       .  S
C164        H170   1.111       .  S
C165        H171   1.082       .  S
C165        C166   1.367       .  D
C166        C497   1.483       .  S
C167        H172   1.086       .  S
C167        C168   1.362       .  D
C168        C487   1.468       .  S
N173        C178   1.353       .  A
N173        C177   1.350       .  A
N173        H205   1.038       .  S
N174        C181   1.349       .  A
N174        C182   1.351       .  A
N175        C180   1.352       .  A
N175        C179   1.355       .  A
N175        H206   1.038       .  S
N176        C183   1.351       .  A
N176        C184   1.348       .  A
C177        C185   1.387       .  A
C177        C193   1.410       .  A
C178        C194   1.411       .  A
C178        C186   1.387       .  A
C179        C187   1.387       .  A
C179        C196   1.417       .  A
C180        C195   1.416       .  A
C180        C188   1.387       .  A
C181        C193   1.410       .  A
C181        C189   1.386       .  A
C182        C196   1.412       .  A
C182        C190   1.387       .  A
C183        C191   1.384       .  A
C183        C194   1.408       .  A
C184        C192   1.388       .  A
C184        C195   1.412       .  A
C185        C186   1.373       .  A
C185        H197   1.082       .  S
C186        H198   1.082       .  S
C187        C188   1.376       .  A
C187        H199   1.082       .  S
C188        H200   1.082       .  S
C189        C190   1.372       .  A
C189        H201   1.082       .  S
C190        H202   1.082       .  S
C191        C192   1.373       .  A
C191        H203   1.082       .  S
C192        H204   1.082       .  S
C193        C311   1.473       .  S
C194        C355   1.482       .  S
C195        C321   1.477       .  S
C196        C277   1.486       .  S
O207        V215   1.893       .  S
O207        C217   1.264       .  A
O208        V215   1.892       .  S
O208        C218   1.262       .  A
O209        V215   1.899       .  S
O209        C219   1.265       .  A
O210        V215   1.904       .  S
O210        C220   1.266       .  A
O211        V216   1.897       .  S
O211       C1740   1.265   1_455  A
O212        V216   1.897       .  S
O212       C1739   1.264   1_455  A
O213        V216   1.897       .  S
O213       C1738   1.265   1_455  A
O214        V216   1.897       .  S
O214       C1737   1.264   1_455  A
V215       V1736   2.087       .  T
V216       V1735   2.086   1_455  T
C217       C1059   1.474   1_545  S
C217       O1734   1.264       .  A
C218        C233   1.472       .  S
C218       O1733   1.265       .  A
C219       C1015   1.475   1_545  S
C219       O1732   1.264       .  A
C220        C289   1.483       .  S
C220       O1731   1.265       .  A
C221        C222   1.540       .  S
C221        C227   1.539       .  S
C221       C1745   1.533       .  S
C221        C245   1.525       .  S
C222        H229   1.081       .  S
C222        C223   1.367       .  D
C223        C224   1.541       .  S
C223        C597   1.481       .  S
C224        C228   1.534       .  S
C224       C1746   1.546       .  S
C224        H230   1.110       .  S
C225       C1741   1.536   1_455  S
C225        H231   1.086       .  S
C225        C226   1.366       .  D
C226       C1744   1.545       .  S
C226        C607   1.485       .  S
C227        H232   1.086       .  S
C227        C228   1.363       .  D
C228        C267   1.474       .  S
C233        C234   1.399       .  A
C233       C1758   1.398       .  A
C234        C235   1.396       .  A
C234        H247   1.084       .  S
C235        C236   1.415       .  A
C235        H248   1.077       .  S
C236        C242   1.429       .  A
C236       C1757   1.423       .  A
C237        C239   1.399       .  A
C237        C238   1.402       .  A
C237       C1756   1.422   1_455  A
C238       C1753   1.400   1_455  A
C238        H249   1.084       .  S
C239        C240   1.388       .  A
C239        H250   1.084       .  S
C240        C241   1.399       .  A
C240        H251   1.084       .  S
C241        C246   1.402       .  A
C241       C1762   1.420   1_455  A
C242        C243   1.413       .  A
C242       C1761   1.420       .  A
C243        C244   1.397       .  A
C243        H252   1.077       .  S
C244        C245   1.406       .  A
C244        H253   1.077       .  S
C245       C1766   1.404       .  A
C246       C1765   1.405   1_455  A
C246        H254   1.084       .  S
C255        C256   1.400       .  A
C255       C1780   1.401       .  A
C255        C979   1.480       .  S
C256        C257   1.398       .  A
C256       H1029   1.083       .  S
C257       C1778   1.416       .  A
C257        H270   1.077       .  S
C258        C264   1.430       .  A
C258        C259   1.422   1_655  A
C258       C1777   1.415       .  A
C259        C261   1.400       .  A
C259        C260   1.405       .  A
C260       C1775   1.402   1_455  A
C260        H271   1.084       .  S
C261        C262   1.390       .  A
C261        H272   1.084       .  S
C262        C263   1.399       .  A
C262        H273   1.084       .  S
C263        C264   1.424   1_455  A
C263        C268   1.405       .  A
C264       C1785   1.416       .  A
C265        C266   1.397       .  A
C265       C1784   1.416       .  A
C265        H274   1.077       .  S
C266        C267   1.397       .  A
C266        H275   1.084       .  S
C267       C1788   1.396       .  A
C268       C1787   1.396   1_455  A
C268        H276   1.083       .  S
H269       C1016   1.084       .  S
C277        C282   1.399       .  A
C277       C1798   1.397       .  A
C278        C279   1.397       .  A
C278       C1797   1.397   1_455  A
C278        H291   1.083       .  S
C279        C280   1.417   1_455  A
C279        H292   1.077       .  S
C280        C286   1.432       .  A
C280       C1801   1.423       .  A
C281        C283   1.399       .  A
C281        C282   1.405       .  A
C281       C1800   1.423       .  A
C282        H293   1.085       .  S
C283        C284   1.390       .  A
C283        H294   1.084       .  S
C284        C285   1.400       .  A
C284        H295   1.084       .  S
C285        C290   1.407       .  A
C285       C1806   1.423       .  A
C286        C287   1.414   1_655  A
C286       C1805   1.423       .  A
C287        C288   1.396       .  A
C287        H296   1.077       .  S
C288       C1809   1.402   1_455  A
C288        H297   1.083       .  S
C289        C290   1.403       .  A
C289       C1808   1.401       .  A
C290        H298   1.084       .  S
C299        C300   1.400       .  A
C299       C1824   1.400       .  A
C299        C977   1.474       .  S
C300        C301   1.394       .  A
C300        H313   1.083       .  S
C301        C302   1.414       .  A
C301        H314   1.077       .  S
C302        C308   1.426       .  A
C302       C1823   1.422       .  A
C303        C305   1.399       .  A
C303        C304   1.402       .  A
C303       C1822   1.422   1_455  A
C304       C1819   1.400   1_455  A
C304       H1075   1.084       .  S
C305        C306   1.388       .  A
C305        H316   1.084       .  S
C306        C307   1.398       .  A
C306        H317   1.084       .  S
C307        C312   1.401       .  A
C307       C1828   1.424   1_455  A
C308        C309   1.416       .  A
C308       C1827   1.423       .  A
C309        C310   1.393       .  A
C309        H318   1.077       .  S
C310        C311   1.395       .  A
C310        H319   1.084       .  S
C311       C1832   1.395       .  A
C312       C1831   1.395   1_455  A
C312        H320   1.085       .  S
H315       C1064   1.084       .  S
C321        C322   1.395       .  A
C321       C1846   1.397       .  A
C322        C323   1.394       .  A
C322        H335   1.084       .  S
C323        C324   1.416       .  A
C323        H336   1.077       .  S
C324        C330   1.426       .  A
C324       C1845   1.423       .  A
C325        C327   1.399       .  A
C325        C326   1.402       .  A
C325       C1844   1.423   1_455  A
C326       C1841   1.398   1_455  A
C326        H337   1.085       .  S
C327        C328   1.389       .  A
C327        H338   1.084       .  S
C328        C329   1.399       .  A
C328        H339   1.084       .  S
C329        C334   1.403       .  A
C329       C1850   1.423   1_455  A
C330        C331   1.414       .  A
C330       C1849   1.423       .  A
C331        C332   1.393       .  A
C331        H340   1.077       .  S
C332        C333   1.398       .  A
C332        H341   1.084       .  S
C333       C1854   1.399       .  A
C334       C1853   1.400   1_455  A
C334        H342   1.084       .  S
C343       C1104   1.399   1_545  A
C343       C1868   1.400   1_545  A
C344        C345   1.393       .  A
C344       C1103   1.400       .  A
C344        H357   1.084       .  S
C345        C346   1.413       .  A
C345        H358   1.077       .  S
C346        C352   1.429       .  A
C346       C1867   1.424       .  A
C347        C349   1.399       .  A
C347       C1866   1.424   1_455  A
C347       C1108   1.408       .  A
C348       C1863   1.399   1_465  A
C348       C1107   1.406       .  A
C348        H359   1.084       .  S
C349        C350   1.391       .  A
C349       H1120   1.084       .  S
C350        C351   1.400       .  A
C350        H361   1.084       .  S
C351        C356   1.406       .  A
C351       C1872   1.423   1_455  A
C352        C353   1.416       .  A
C352       C1871   1.423       .  A
C353        C354   1.395       .  A
C353        H362   1.077       .  S
C354        C355   1.396       .  A
C354        H363   1.084       .  S
C355       C1876   1.399       .  A
C356       C1875   1.399   1_455  A
C356        H364   1.085       .  S
H360       C1109   1.084       .  S
C365        C366   1.396       .  A
C365       C1890   1.396       .  A
C366        C367   1.395       .  A
C366        H379   1.083       .  S
C367       C1888   1.416       .  A
C367        H380   1.077       .  S
C368        C374   1.429       .  A
C368        C369   1.424       .  A
C368       C1887   1.416   1_455  A
C369        C371   1.399       .  A
C369        C370   1.404       .  A
C370       C1885   1.397       .  A
C370        H381   1.085       .  S
C371        C372   1.389       .  A
C371        H382   1.084       .  S
C372        C373   1.399       .  A
C372        H383   1.084       .  S
C373        C374   1.423       .  A
C373        C378   1.404       .  A
C374       C1895   1.415   1_455  A
C375        C376   1.396       .  A
C375       C1894   1.416       .  A
C375        H384   1.077       .  S
C376        C377   1.398       .  A
C376        H385   1.083       .  S
C377       C1898   1.400       .  A
C378       C1897   1.400       .  A
C378        H386   1.085       .  S
C387        C392   1.398       .  A
C387       C1908   1.397       .  A
C388        C389   1.395       .  A
C388       C1907   1.397       .  A
C388        H401   1.084       .  S
C389       C1910   1.416       .  A
C389        H402   1.077       .  S
C390        C396   1.429       .  A
C390        C391   1.423       .  A
C390       C1909   1.416       .  A
C391        C393   1.399       .  A
C391        C392   1.402       .  A
C392        H403   1.085       .  S
C393        C394   1.388       .  A
C393        H404   1.084       .  S
C394        C395   1.399       .  A
C394       H1165   1.084       .  S
C395        C396   1.422       .  A
C395       C1160   1.403       .  A
C396       C1917   1.414       .  A
C397        C398   1.395       .  A
C397       C1916   1.414       .  A
C397        H406   1.077       .  S
C398       C2679   1.401       .  A
C398        H407   1.084       .  S
C399        C400   1.400   1_545  A
C399       C2678   1.400       .  A
C400       C1155   1.402       .  A
C400        H408   1.084       .  S
H405       C1154   1.084       .  S
C409        C414   1.402       .  A
C409       C1930   1.400       .  A
C410        C411   1.392       .  A
C410       C1929   1.400       .  A
C410        H423   1.083       .  S
C411       C1932   1.413       .  A
C411        H424   1.077       .  S
C412        C418   1.427       .  A
C412        C413   1.423       .  A
C412       C1931   1.413       .  A
C413        C415   1.400       .  A
C413        C414   1.406       .  A
C414        H425   1.084       .  S
C415        C416   1.390       .  A
C415        H426   1.084       .  S
C416        C417   1.399       .  A
C416        H427   1.084       .  S
C417        C418   1.423       .  A
C417        C422   1.404       .  A
C418       C1939   1.416       .  A
C419        C420   1.393       .  A
C419       C1938   1.416       .  A
C419        H428   1.076       .  S
C420       C1941   1.395       .  A
C420        H429   1.084       .  S
C421        C422   1.398       .  A
C421       C1940   1.395       .  A
C422        H430   1.085       .  S
C431        C432   1.396       .  A
C431       C1956   1.397       .  A
C432        C433   1.396       .  A
C432        H445   1.083       .  S
C433        C434   1.417       .  A
C433        H446   1.077       .  S
C434        C440   1.430       .  A
C434       C1955   1.423       .  A
C435        C437   1.399       .  A
C435        C436   1.404       .  A
C435       C1954   1.424       .  A
C436       C1951   1.397       .  A
C436        H447   1.085       .  S
C437        C438   1.389       .  A
C437        H448   1.084       .  S
C438        C439   1.399       .  A
C438        H449   1.084       .  S
C439        C444   1.405       .  A
C439       C1960   1.423       .  A
C440        C441   1.414       .  A
C440       C1959   1.423       .  A
C441        C442   1.396       .  A
C441        H450   1.077       .  S
C442       C1203   1.401       .  A
C442       H1211   1.083       .  S
C443       C1202   1.401       .  A
C443       C2724   1.402       .  A
C444       C2723   1.401       .  A
C444        H452   1.084       .  S
H451       C1202   1.083       .  S
C453        C458   1.402       .  A
C453       C1974   1.400       .  A
C454        C455   1.396       .  A
C454       C1973   1.400       .  A
C454        H467   1.083       .  S
C455       C1976   1.415       .  A
C455        H468   1.077       .  S
C456        C462   1.430       .  A
C456        C457   1.422       .  A
C456       C1975   1.415       .  A
C457        C459   1.399       .  A
C457        C458   1.404       .  A
C458        H469   1.084       .  S
C459        C460   1.389       .  A
C459        H470   1.084       .  S
C460        C461   1.400       .  A
C460        H471   1.084       .  S
C461        C462   1.421       .  A
C461        C466   1.406       .  A
C462       C1983   1.412       .  A
C463        C464   1.395       .  A
C463       C1982   1.412       .  A
C463        H472   1.077       .  S
C464       C1985   1.404   1_455  A
C464        H473   1.083       .  S
C465        C466   1.407       .  A
C465       C1984   1.405       .  A
C466        H474   1.079       .  S
C475        C480   1.401       .  A
C475       C1996   1.401       .  A
C475        C878   1.479       .  S
C476        C477   1.397       .  A
C476       C1995   1.401       .  A
C476        H489   1.083       .  S
C477       C1998   1.415       .  A
C477        H490   1.077       .  S
C478        C484   1.429       .  A
C478        C479   1.422       .  A
C478       C1997   1.415       .  A
C479        C481   1.399       .  A
C479        C480   1.402       .  A
C480        H491   1.084       .  S
C481        C482   1.388       .  A
C481        H492   1.084       .  S
C482        C483   1.398       .  A
C482        H493   1.084       .  S
C483        C484   1.424       .  A
C483        C488   1.403       .  A
C484       C2005   1.416       .  A
C485        C486   1.396       .  A
C485       C2004   1.416       .  A
C485        H494   1.077       .  S
C486       C2007   1.395   1_455  A
C486        H495   1.084       .  S
C487        C488   1.394       .  A
C487       C2006   1.396       .  A
C488        H496   1.085       .  S
C497        C498   1.399       .  A
C497        C502   1.401       .  A
C498        C499   1.395       .  A
C498        H511   1.083       .  S
C499        C500   1.415       .  A
C499        H512   1.077       .  S
C500        C506   1.431       .  A
C500        C501   1.423       .  A
C501        C503   1.400       .  A
C501        C502   1.409       .  A
C502        H513   1.084       .  S
C503        C504   1.393       .  A
C503        H514   1.084       .  S
C504        C505   1.401       .  A
C504        H515   1.084       .  S
C505        C506   1.423       .  A
C505        C510   1.411       .  A
C506        C507   1.413       .  A
C507        C508   1.394       .  A
C507        H516   1.077       .  S
C508        C509   1.402       .  A
C508        H517   1.083       .  S
C509        C510   1.404       .  A
C510        H518   1.084       .  S
C519        C520   1.401       .  A
C519        C524   1.403       .  A
C520        C521   1.396       .  A
C520        H533   1.083       .  S
C521        C522   1.414       .  A
C521        H534   1.077       .  S
C522        C528   1.430       .  A
C522        C523   1.422       .  A
C523        C525   1.400       .  A
C523        C524   1.407       .  A
C524        H535   1.084       .  S
C525        C526   1.391       .  A
C525        H536   1.084       .  S
C526        C527   1.400       .  A
C526        H537   1.084       .  S
C527        C528   1.422       .  A
C527        C532   1.406       .  A
C528        C529   1.415       .  A
C529        C530   1.395       .  A
C529        H538   1.077       .  S
C530        C531   1.399       .  A
C530        H539   1.082       .  S
C531        C532   1.403       .  A
C532        H540   1.084       .  S
C541        C542   1.398       .  A
C541        C546   1.400       .  A
C542        C543   1.395       .  A
C542       H1315   1.084       .  S
C543        C544   1.415       .  A
C543        H556   1.077       .  S
C544        C550   1.430       .  A
C544        C545   1.423       .  A
C545        C547   1.399       .  A
C545        C546   1.406       .  A
C546        H557   1.085       .  S
C547        C548   1.391       .  A
C547        H558   1.084       .  S
C548        C549   1.400       .  A
C548        H559   1.084       .  S
C549        C550   1.423       .  A
C549        C554   1.406       .  A
C550        C551   1.415       .  A
C551        C552   1.396       .  A
C551        H560   1.077       .  S
C552        C553   1.400       .  A
C552        H561   1.083       .  S
C553        C554   1.401       .  A
C554        H562   1.084       .  S
H555       C1302   1.084   1_545  S
C563        C564   1.402       .  A
C563        C568   1.401       .  A
C564        C565   1.398       .  A
C564        H577   1.083       .  S
C565        C566   1.414       .  A
C565        H578   1.077       .  S
C566        C572   1.432       .  A
C566        C567   1.424       .  A
C567        C569   1.399       .  A
C567        C568   1.406       .  A
C568        H579   1.084       .  S
C569        C570   1.389       .  A
C569        H580   1.084       .  S
C570        C571   1.399       .  A
C570       H1341   1.084       .  S
C571        C572   1.423       .  A
C571        C576   1.403       .  A
C572        C573   1.418       .  A
C573        C574   1.400       .  A
C573        H582   1.077       .  S
C574        C575   1.397       .  A
C574        H583   1.083       .  S
C575        C576   1.397       .  A
C576       H1344   1.085       .  S
H581       C1330   1.084   1_545  S
H584       C1336   1.085   1_545  S
C585        C586   1.402       .  A
C585        C590   1.400       .  A
C586        C587   1.400       .  A
C586        H599   1.083       .  S
C587        C588   1.416       .  A
C587        H600   1.078       .  S
C588        C594   1.431       .  A
C588        C589   1.422       .  A
C589        C591   1.398       .  A
C589        C590   1.401       .  A
C590        H601   1.084       .  S
C591        C592   1.386       .  A
C591        H602   1.084       .  S
C592        C593   1.398       .  A
C592        H603   1.084       .  S
C593        C594   1.423       .  A
C593        C598   1.401       .  A
C594        C595   1.417       .  A
C595        C596   1.400       .  A
C595        H604   1.078       .  S
C596        C597   1.400       .  A
C596        H605   1.083       .  S
C597        C598   1.398       .  A
C598        H606   1.085       .  S
C607        C608   1.398       .  A
C607        C612   1.403       .  A
C608        C609   1.396       .  A
C608        H621   1.081       .  S
C609        C610   1.415       .  A
C609        H622   1.077       .  S
C610        C616   1.428       .  A
C610        C611   1.421       .  A
C611        C613   1.400       .  A
C611        C612   1.403       .  A
C612        H623   1.084       .  S
C613        C614   1.390       .  A
C613        H624   1.084       .  S
C614        C615   1.399       .  A
C614        H625   1.084       .  S
C615        C616   1.422       .  A
C615        C620   1.405       .  A
C616        C617   1.413       .  A
C617        C618   1.394       .  A
C617        H626   1.077       .  S
C618        C619   1.401       .  A
C618        H627   1.083       .  S
C619        C620   1.402       .  A
C620        H628   1.084       .  S
C629        C630   1.396       .  A
C629        C634   1.400       .  A
C630        C631   1.391       .  A
C630       H1403   1.084       .  S
C631        C632   1.414       .  A
C631        H644   1.077       .  S
C632        C638   1.426       .  A
C632        C633   1.422       .  A
C633        C635   1.400       .  A
C633        C634   1.406       .  A
C634        H645   1.084       .  S
C635        C636   1.392       .  A
C635        H646   1.084       .  S
C636        C637   1.400       .  A
C636        H647   1.084       .  S
C637        C638   1.423       .  A
C637        C642   1.407       .  A
C638        C639   1.412       .  A
C639        C640   1.389       .  A
C639        H648   1.077       .  S
C640        C641   1.398       .  A
C640        H649   1.083   1_556  S
C641        C642   1.400       .  A
C642        H650   1.084       .  S
H643       C1390   1.084       .  S
C651        C652   1.408       .  A
C651        C656   1.409       .  A
C652        C653   1.393       .  A
C652        H665   1.082       .  S
C653        C654   1.408       .  A
C653        H666   1.080       .  S
C654        C660   1.421       .  A
C654        C655   1.417       .  A
C655        C657   1.402       .  A
C655        C656   1.406       .  A
C656        H667   1.079   1_556  S
C657        C658   1.395       .  A
C657        H668   1.084   1_556  S
C658        C659   1.402       .  A
C658        H669   1.084       .  S
C659        C660   1.417       .  A
C659        C664   1.405       .  A
C660        C661   1.410       .  A
C661        C662   1.394       .  A
C661        H670   1.080       .  S
C662        C663   1.404       .  A
C662        H671   1.083       .  S
C663        C664   1.408       .  A
C664        H672   1.083       .  S
C673        C674   1.399       .  A
C673        C678   1.400       .  A
C674        C675   1.392       .  A
C674        H687   1.083       .  S
C675        C676   1.413       .  A
C675        H688   1.077       .  S
C676        C682   1.425       .  A
C676        C677   1.422       .  A
C677        C679   1.399       .  A
C677        C678   1.403       .  A
C678        H689   1.084       .  S
C679        C680   1.389       .  A
C679        H690   1.084       .  S
C680        C681   1.399       .  A
C680        H691   1.084       .  S
C681        C682   1.423       .  A
C681        C686   1.401       .  A
C682        C683   1.416       .  A
C683        C684   1.392       .  A
C683        H692   1.077       .  S
C684        C685   1.394       .  A
C684        H693   1.084       .  S
C685        C686   1.396       .  A
C686        H694   1.085       .  S
C695        C696   1.396       .  A
C695        C700   1.398       .  A
C696        C697   1.393       .  A
C696        H709   1.084       .  S
C697        C698   1.415       .  A
C697        H710   1.077       .  S
C698        C704   1.429       .  A
C698        C699   1.424       .  A
C699        C701   1.399       .  A
C699        C700   1.405       .  A
C700        H711   1.085       .  S
C701        C702   1.390       .  A
C701        H712   1.084       .  S
C702        C703   1.400       .  A
C702        H713   1.084       .  S
C703        C704   1.422       .  A
C703        C708   1.405       .  A
C704        C705   1.415       .  A
C705        C706   1.395       .  A
C705        H714   1.077       .  S
C706        C707   1.400       .  A
C706        H715   1.083       .  S
C707        C708   1.403       .  A
C708        H716   1.084       .  S
C717        C718   1.399       .  A
C717        C722   1.396       .  A
C718        C719   1.399       .  A
C718        H731   1.083       .  S
C719        C720   1.417       .  A
C719        H732   1.077       .  S
C720        C726   1.429       .  A
C720        C721   1.424       .  A
C721        C723   1.397   1_545  A
C721        C722   1.398       .  A
C722        H733   1.085   1_545  S
C723        C724   1.385   1_565  A
C723        H734   1.084       .  S
C724        C725   1.398       .  A
C724        H735   1.084   1_545  S
C725        C726   1.422       .  A
C725        C730   1.397       .  A
C726        C727   1.418       .  A
C727        C728   1.400       .  A
C727        H736   1.077       .  S
C728        C729   1.398       .  A
C728        H737   1.083       .  S
C729        C730   1.398       .  A
C730        H738   1.085       .  S
C739        C740   1.395       .  A
C739        C744   1.396   1_545  A
C740        C741   1.391       .  A
C740        H753   1.084       .  S
C741        C742   1.414       .  A
C741        H754   1.077       .  S
C742        C748   1.424       .  A
C742        C743   1.423       .  A
C743        C745   1.399   1_545  A
C743        C744   1.402   1_545  A
C744        H755   1.085       .  S
C745        C746   1.390       .  A
C745        H756   1.084       .  S
C746        C747   1.399   1_565  A
C746        H757   1.084       .  S
C747        C748   1.423       .  A
C747        C752   1.402       .  A
C748        C749   1.415       .  A
C749        C750   1.391       .  A
C749        H758   1.077       .  S
C750        C751   1.395       .  A
C750        H759   1.084       .  S
C751        C752   1.397       .  A
C752        H760   1.085       .  S
N761        C766   1.351       .  A
N761        H793   1.039       .  S
N762       C2289   1.349   1_455  A
N762        C770   1.349       .  A
N763        C767   1.354       .  A
N763        H794   1.039       .  S
N764       C2291   1.349       .  A
N764        C772   1.348   1_655  A
C765        C773   1.388       .  A
C765        C781   1.410       .  A
C766        C782   1.410       .  A
C766        C774   1.386       .  A
C767        C775   1.388       .  A
C767        C784   1.416       .  A
C768        C783   1.412       .  A
C768        C776   1.387       .  A
C769       N2282   1.349       .  A
C769        C781   1.410       .  A
C769        C777   1.387       .  A
C770        C784   1.410       .  A
C770        C778   1.387       .  A
C771       N2284   1.350       .  A
C771        C779   1.386       .  A
C771        C782   1.408       .  A
C772        C780   1.386       .  A
C772        C783   1.407       .  A
C773        H785   1.082       .  S
C774        H786   1.082       .  S
C775        H787   1.082       .  S
C776        H788   1.082       .  S
C777       C2298   1.373       .  A
C777        H789   1.082       .  S
C778       C2297   1.374   1_455  A
C778        H790   1.082       .  S
C779       C2300   1.372       .  A
C779        H791   1.082       .  S
C780       C2299   1.371   1_455  A
C780        H792   1.082       .  S
C781       C1445   1.473       .  S
C782       C1477   1.480       .  S
C783       C1499   1.473       .  S
C784       C1455   1.483       .  S
C795        C796   1.420       .  A
C795        C800   1.412   1_554  A
C795       C1411   1.505   1_554  S
C796        C797   1.398       .  A
C796       C1511   1.466       .  S
C797        C798   1.395       .  A
C797        H802   1.086       .  S
C798        C799   1.410       .  A
C798       C1489   1.479       .  S
C799        C800   1.404   1_554  A
C799       C1401   1.479   1_554  S
C800        H801   1.083       .  S
O803        V811   1.889       .  S
O803        C813   1.263       .  A
O804        V811   1.894       .  S
O804        C814   1.264       .  A
O805        V811   1.904       .  S
O805        C815   1.266       .  A
O806        V811   1.904       .  S
O806        C816   1.266       .  A
O807        V812   1.896       .  S
O807        C816   1.264       .  A
O808        V812   1.898       .  S
O808        C815   1.265       .  A
O809        V812   1.900       .  S
O809        C814   1.265       .  A
O810        V812   1.899       .  S
O810        C813   1.265       .  A
V811        V812   2.086       .  T
C813       C1433   1.472       .  S
C814       C1379   1.478       .  S
C815       C1345   1.483       .  S
C816       C1467   1.481       .  S
N817        C821   1.354       .  A
N817        H849   1.041       .  S
N818       C2345   1.350       .  A
N818        C826   1.349       .  A
N819        C823   1.353       .  A
N819        H850   1.040       .  S
N820       C2347   1.351       .  A
N820        C828   1.351       .  A
C821        C829   1.390       .  A
C821        C837   1.422       .  A
C822        C838   1.410       .  A
C822        C830   1.384       .  A
C823        C831   1.389       .  A
C823        C840   1.417       .  A
C824        C839   1.412       .  A
C824        C832   1.386       .  A
C825       N2338   1.350   1_455  A
C825        C837   1.415       .  A
C825        C833   1.387       .  A
C826        C840   1.409       .  A
C826        C834   1.385       .  A
C827       N2340   1.350   1_455  A
C827        C835   1.385       .  A
C827        C838   1.409       .  A
C828        C836   1.387       .  A
C828        C839   1.412       .  A
C829        H841   1.082       .  S
C830        H842   1.082       .  S
C831        H843   1.082       .  S
C832        H844   1.082       .  S
C833       C2354   1.374   1_455  A
C833        H845   1.082       .  S
C834       C2353   1.374       .  A
C834        H846   1.081       .  S
C835       C2356   1.373   1_455  A
C835        H847   1.082       .  S
C836       C2355   1.373       .  A
C836        H848   1.082       .  S
C837       C1423   1.500       .  S
C838       C1335   1.483       .  S
C839       C1301   1.485       .  S
C840       C1389   1.481       .  S
O851        V859   1.903       .  S
O851        C861   1.265       .  A
O852        V859   1.902       .  S
O852        C862   1.265       .  A
O853        V859   1.895       .  S
O853        C863   1.264       .  A
O854        V859   1.898       .  S
O854        C864   1.264       .  A
O855        V860   1.907       .  S
O855        C864   1.267       .  A
O856        V860   1.915       .  S
O856        C863   1.268       .  A
O857        V860   1.899       .  S
O857        C862   1.265       .  A
O858        V860   1.896       .  S
O858        C861   1.264       .  A
V859        V860   2.085       .  T
C861       C1313   1.476       .  S
C862       C1279   1.482       .  S
C863       C1269   1.488       .  S
C864       C1323   1.484       .  S
O865        V873   1.900       .  S
O865       C2395   1.265       .  A
O866        V873   1.902       .  S
O866       C2396   1.266       .  A
O867        V873   1.895       .  S
O867       C2397   1.265       .  A
O868        V873   1.900       .  S
O868       C2398   1.265       .  A
O869        V874   1.897       .  S
O869        C878   1.265       .  A
O870        V874   1.899       .  S
O870        C877   1.264       .  A
O871        V874   1.896       .  S
O871        C876   1.264       .  A
O872        V874   1.893       .  S
O872        C875   1.264       .  A
V873       V2394   2.086   1_455  T
V874       V2393   2.086       .  T
C875       C1213   1.478       .  S
C875       O2385   1.265       .  A
C876       C1203   1.480       .  S
C876       O2386   1.266       .  A
C877       C1169   1.477       .  S
C877       O2387   1.264       .  A
C878       O2388   1.264       .  A
N879        C884   1.354       .  A
N879        C883   1.352       .  A
N879        H911   1.038       .  S
N880        C887   1.350       .  A
N880        C888   1.350       .  A
N881        C886   1.352       .  A
N881        C885   1.353       .  A
N881        H912   1.037       .  S
N882        C889   1.351       .  A
N882        C890   1.351       .  A
C883        C891   1.388       .  A
C883        C899   1.415       .  A
C884        C900   1.414       .  A
C884        C892   1.387       .  A
C885        C893   1.387       .  A
C885        C902   1.414       .  A
C886        C901   1.414       .  A
C886        C894   1.388       .  A
C887        C899   1.411       .  A
C887        C895   1.387       .  A
C888        C902   1.410       .  A
C888        C896   1.386       .  A
C889        C897   1.386       .  A
C889        C900   1.411       .  A
C890        C898   1.387       .  A
C890        C901   1.412       .  A
C891        C892   1.375       .  A
C891        H903   1.082       .  S
C892        H904   1.082       .  S
C893        C894   1.374       .  A
C893        H905   1.082       .  S
C894        H906   1.082       .  S
C895        C896   1.372       .  A
C895        H907   1.082       .  S
C896        H908   1.082       .  S
C897        C898   1.372       .  A
C897        H909   1.082       .  S
C898        H910   1.082       .  S
C899       C1147   1.481       .  S
C900       C1191   1.482       .  S
C901       C1181   1.478       .  S
C902       C1125   1.480       .  S
C913        C914   1.417       .  A
C913        C918   1.407       .  A
C913       C1159   1.487       .  S
C914        C915   1.402       .  A
C914       C1103   1.484       .  S
C915        C916   1.400       .  A
C915        H920   1.085       .  S
C916        C917   1.412       .  A
C916       C1093   1.481       .  S
C917        C918   1.403       .  A
C917       C1137   1.483       .  S
C918        H919   1.084       .  S
C921       C2442   1.540       .  S
C921        C927   1.535       .  S
C921        C925   1.542       .  S
C921       C1225   1.526       .  S
C922       C2441   1.540       .  S
C922        H929   1.085       .  S
C922        C923   1.367       .  D
C923       C2444   1.542   1_455  S
C923       C1291   1.484       .  S
C924       C2443   1.541       .  S
C924        C928   1.528       .  S
C924        C926   1.540       .  S
C924        H930   1.111       .  S
C925        H931   1.084       .  S
C925        C926   1.368       .  D
C926       C1257   1.485       .  S
C927        H932   1.087       .  S
C927        C928   1.361       .  D
C928       C1247   1.465       .  S
N933        C938   1.353       .  A
N933        C937   1.351       .  A
N933        H965   1.037       .  S
N934        C941   1.350       .  A
N934        C942   1.351       .  A
N935        C940   1.353       .  A
N935        C939   1.356       .  A
N935        H966   1.038       .  S
N936        C943   1.352       .  A
N936        C944   1.349       .  A
C937        C945   1.387       .  A
C937        C953   1.411       .  A
C938        C954   1.414       .  A
C938        C946   1.387       .  A
C939        C947   1.386       .  A
C939        C956   1.417       .  A
C940        C955   1.418       .  A
C940        C948   1.388       .  A
C941        C953   1.411       .  A
C941        C949   1.386       .  A
C942        C956   1.411       .  A
C942        C950   1.386       .  A
C943        C951   1.385       .  A
C943        C954   1.411       .  A
C944        C952   1.388       .  A
C944        C955   1.413       .  A
C945        C946   1.374       .  A
C945        H957   1.082       .  S
C946        H958   1.082       .  S
C947        C948   1.375       .  A
C947        H959   1.082       .  S
C948        H960   1.082       .  S
C949        C950   1.371       .  A
C949        H961   1.082       .  S
C950        H962   1.082       .  S
C951        C952   1.374       .  A
C951        H963   1.082       .  S
C952        H964   1.082       .  S
C953       C1071   1.476       .  S
C954       C1115   1.483       .  S
C955       C1081   1.481       .  S
C956       C1037   1.485       .  S
O967        V975   1.893       .  S
O967        C977   1.263       .  A
O968        V975   1.894       .  S
O968        C978   1.264       .  A
O969        V975   1.903       .  S
O969        C979   1.265       .  A
O970        V975   1.900       .  S
O970        C980   1.265       .  A
O971        V976   1.900       .  S
O971       C2500   1.265   1_455  A
O972        V976   1.899       .  S
O972       C2499   1.265   1_455  A
O973        V976   1.895       .  S
O973       C2498   1.264   1_455  A
O974        V976   1.897       .  S
O974       C2497   1.264   1_455  A
V975       V2496   2.086       .  T
V976       V2495   2.086   1_455  T
C977       O2494   1.264       .  A
C978        C993   1.473       .  S
C978       O2493   1.264       .  A
C979       O2492   1.265       .  A
C980       C1049   1.483       .  S
C980       O2491   1.266       .  A
C981        C982   1.536       .  S
C981        C987   1.535       .  S
C981       C2505   1.538       .  S
C981       C1005   1.525       .  S
C982        H989   1.085       .  S
C982        C983   1.368       .  D
C983        C984   1.546       .  S
C983       C1357   1.496       .  S
C984        C988   1.539       .  S
C984       C2506   1.542       .  S
C984        H990   1.109       .  S
C985       C2501   1.538       .  S
C985        H991   1.083       .  S
C985        C986   1.365       .  D
C986       C2504   1.542       .  S
C986       C1367   1.480       .  S
C987        H992   1.087       .  S
C987        C988   1.363       .  D
C988       C1027   1.480       .  S
C993        C994   1.399       .  A
C993       C2518   1.401       .  A
C994        C995   1.393       .  A
C994       H1007   1.083       .  S
C995        C996   1.413       .  A
C995       H1008   1.078       .  S
C996       C1002   1.425       .  A
C996       C2517   1.421       .  A
C997       C2516   1.421   1_455  A
C997        C999   1.399       .  A
C997        C998   1.403       .  A
C998       C2513   1.401   1_455  A
C998       H1009   1.084       .  S
C999       C1000   1.389       .  A
C999       H1010   1.084       .  S
C1000      C1001   1.400       .  A
C1000      H1011   1.084       .  S
C1001      C2522   1.420   1_455  A
C1001      C1006   1.403       .  A
C1002      C2521   1.420       .  A
C1002      C1003   1.411       .  A
C1003      C1004   1.392       .  A
C1003      H1012   1.077       .  S
C1004      C1005   1.404       .  A
C1004      H1013   1.083       .  S
C1005      C2526   1.407       .  A
C1006      C2525   1.407       .  A
C1006      H1014   1.080       .  S
C1015      C1016   1.397       .  A
C1015      C2540   1.402       .  A
C1016      C1017   1.395       .  A
C1017      C2538   1.415       .  A
C1017      H1030   1.077       .  S
C1018      C2537   1.416       .  A
C1018      C1024   1.430       .  A
C1018      C1019   1.422   1_655  A
C1019      C1021   1.400       .  A
C1019      C1020   1.405       .  A
C1020      C2535   1.403   1_455  A
C1020      H1031   1.084       .  S
C1021      C1022   1.390       .  A
C1021      H1032   1.084       .  S
C1022      C1023   1.399       .  A
C1022      H1033   1.084       .  S
C1023      C1024   1.424   1_455  A
C1023      C1028   1.405       .  A
C1024      C2545   1.416       .  A
C1025      C2544   1.414       .  A
C1025      C1026   1.393       .  A
C1025      H1034   1.077       .  S
C1026      C1027   1.395       .  A
C1026      H1035   1.077       .  S
C1027      C2548   1.402       .  A
C1028      C2547   1.397       .  A
C1028      H1036   1.085       .  S
C1037      C2558   1.397       .  A
C1037      C1042   1.398       .  A
C1038      C2557   1.397   1_455  A
C1038      C1039   1.396       .  A
C1038      H1051   1.083       .  S
C1039      C1040   1.416   1_455  A
C1039      H1052   1.077       .  S
C1040      C1046   1.431       .  A
C1040      C2561   1.423       .  A
C1041      C2560   1.424       .  A
C1041      C1043   1.399       .  A
C1041      C1042   1.405       .  A
C1042      H1053   1.085       .  S
C1043      C1044   1.390       .  A
C1043      H1054   1.084       .  S
C1044      C1045   1.400       .  A
C1044      H1055   1.084       .  S
C1045      C2566   1.422       .  A
C1045      C1050   1.405       .  A
C1046      C2565   1.423       .  A
C1046      C1047   1.415   1_655  A
C1047      C1048   1.396       .  A
C1047      H1056   1.077       .  S
C1048      C2569   1.401   1_455  A
C1048      H1057   1.083       .  S
C1049      C2568   1.401       .  A
C1049      C1050   1.402       .  A
C1050      H1058   1.084       .  S
C1059      C1060   1.399       .  A
C1059      C2584   1.401       .  A
C1060      C1061   1.392       .  A
C1060      H1073   1.083   1_565  S
C1061      C1062   1.414       .  A
C1061      H1074   1.077       .  S
C1062      C1068   1.426       .  A
C1062      C2583   1.422       .  A
C1063      C2582   1.422   1_455  A
C1063      C1065   1.399       .  A
C1063      C1064   1.403       .  A
C1064      C2579   1.401   1_455  A
C1065      C1066   1.389       .  A
C1065      H1076   1.084       .  S
C1066      C1067   1.399       .  A
C1066      H1077   1.084       .  S
C1067      C2588   1.424   1_455  A
C1067      C1072   1.404       .  A
C1068      C2587   1.424       .  A
C1068      C1069   1.415       .  A
C1069      C1070   1.392       .  A
C1069      H1078   1.076       .  S
C1070      C1071   1.394       .  A
C1070      H1079   1.084       .  S
C1071      C2592   1.397       .  A
C1072      C2591   1.397   1_455  A
C1072      H1080   1.085       .  S
C1081      C1082   1.396       .  A
C1081      C2606   1.398       .  A
C1082      C1083   1.396       .  A
C1082      H1095   1.083       .  S
C1083      C1084   1.417       .  A
C1083      H1096   1.077       .  S
C1084      C1090   1.428       .  A
C1084      C2605   1.422       .  A
C1085      C2604   1.422   1_455  A
C1085      C1087   1.400       .  A
C1085      C1086   1.403       .  A
C1086      C2601   1.399   1_455  A
C1086      H1097   1.085       .  S
C1087      C1088   1.390       .  A
C1087      H1098   1.084       .  S
C1088      C1089   1.399       .  A
C1088      H1099   1.084       .  S
C1089      C2610   1.424   1_455  A
C1089      C1094   1.405       .  A
C1090      C2609   1.424       .  A
C1090      C1091   1.413       .  A
C1091      C1092   1.394       .  A
C1091      H1100   1.077       .  S
C1092      C1093   1.399       .  A
C1092      H1101   1.084       .  S
C1093      C2614   1.399       .  A
C1094      C2613   1.400   1_455  A
C1094      H1102   1.084       .  S
C1103      C2628   1.400       .  A
C1104      C1105   1.395       .  A
C1104      H1117   1.084   1_565  S
C1105      C1106   1.415       .  A
C1105      H1118   1.077       .  S
C1106      C1112   1.430       .  A
C1106      C2627   1.424       .  A
C1107      C2626   1.424   1_455  A
C1107      C1109   1.399       .  A
C1108      C2623   1.401   1_455  A
C1108      H1119   1.084       .  S
C1109      C1110   1.390       .  A
C1110      C1111   1.399       .  A
C1110      H1121   1.084       .  S
C1111      C2632   1.423   1_455  A
C1111      C1116   1.405       .  A
C1112      C2631   1.423       .  A
C1112      C1113   1.417       .  A
C1113      C1114   1.397       .  A
C1113      H1122   1.077       .  S
C1114      C1115   1.396       .  A
C1114      H1123   1.083       .  S
C1115      C2636   1.398       .  A
C1116      C2635   1.398   1_455  A
C1116      H1124   1.085       .  S
C1125      C1126   1.396       .  A
C1125      C2650   1.397       .  A
C1126      C1127   1.396       .  A
C1126      H1139   1.083       .  S
C1127      C2648   1.416       .  A
C1127      H1140   1.077       .  S
C1128      C2647   1.416   1_455  A
C1128      C1134   1.430       .  A
C1128      C1129   1.424       .  A
C1129      C1131   1.399       .  A
C1129      C1130   1.404       .  A
C1130      C2645   1.397       .  A
C1130      H1141   1.085       .  S
C1131      C1132   1.389       .  A
C1131      H1142   1.084       .  S
C1132      C1133   1.399       .  A
C1132      H1143   1.084       .  S
C1133      C1134   1.423       .  A
C1133      C1138   1.404       .  A
C1134      C2655   1.416   1_455  A
C1135      C2654   1.416       .  A
C1135      C1136   1.396       .  A
C1135      H1144   1.077       .  S
C1136      C1137   1.399       .  A
C1136      H1145   1.083       .  S
C1137      C2658   1.400       .  A
C1138      C2657   1.400       .  A
C1138      H1146   1.085       .  S
C1147      C2668   1.397       .  A
C1147      C1152   1.398       .  A
C1148      C2667   1.398       .  A
C1148      C1149   1.395       .  A
C1148      H1161   1.084       .  S
C1149      C2670   1.416       .  A
C1149      H1162   1.077       .  S
C1150      C2669   1.416       .  A
C1150      C1156   1.427       .  A
C1150      C1151   1.423       .  A
C1151      C1153   1.399       .  A
C1151      C1152   1.402       .  A
C1152      H1163   1.085       .  S
C1153      C1154   1.389       .  A
C1153      H1164   1.084       .  S
C1154      C1155   1.399       .  A
C1155      C1156   1.422       .  A
C1156      C2677   1.414       .  A
C1157      C2676   1.414       .  A
C1157      C1158   1.394   1_565  A
C1157      H1166   1.077       .  S
C1158      C1919   1.401       .  A
C1158      H1167   1.084       .  S
C1159      C1918   1.401       .  A
C1159      C1160   1.401       .  A
C1160      H1168   1.084       .  S
C1169      C2690   1.400       .  A
C1169      C1174   1.402       .  A
C1170      C2689   1.400       .  A
C1170      C1171   1.393       .  A
C1170      H1183   1.083       .  S
C1171      C2692   1.414       .  A
C1171      H1184   1.077       .  S
C1172      C2691   1.414       .  A
C1172      C1178   1.427       .  A
C1172      C1173   1.422       .  A
C1173      C1175   1.400       .  A
C1173      C1174   1.405       .  A
C1174      H1185   1.084       .  S
C1175      C1176   1.390       .  A
C1175      H1186   1.084       .  S
C1176      C1177   1.399       .  A
C1176      H1187   1.084       .  S
C1177      C1178   1.423       .  A
C1177      C1182   1.403       .  A
C1178      C2699   1.416       .  A
C1179      C2698   1.416       .  A
C1179      C1180   1.393       .  A
C1179      H1188   1.077       .  S
C1180      C2701   1.395       .  A
C1180      H1189   1.084       .  S
C1181      C2700   1.395       .  A
C1181      C1182   1.398       .  A
C1182      H1190   1.085       .  S
C1191      C1192   1.396       .  A
C1191      C2716   1.397       .  A
C1192      C1193   1.396       .  A
C1192      H1205   1.083       .  S
C1193      C1194   1.417       .  A
C1193      H1206   1.077       .  S
C1194      C1200   1.430       .  A
C1194      C2715   1.424       .  A
C1195      C2714   1.424       .  A
C1195      C1197   1.399       .  A
C1195      C1196   1.404       .  A
C1196      C2711   1.397       .  A
C1196      H1207   1.085       .  S
C1197      C1198   1.389       .  A
C1197      H1208   1.084       .  S
C1198      C1199   1.399       .  A
C1198      H1209   1.084       .  S
C1199      C2720   1.423       .  A
C1199      C1204   1.405       .  A
C1200      C2719   1.423       .  A
C1200      C1201   1.415       .  A
C1201      C1202   1.396       .  A
C1201      H1210   1.077       .  S
C1203      C1964   1.401       .  A
C1204      C1963   1.401       .  A
C1204      H1212   1.084       .  S
C1213      C2734   1.400       .  A
C1213      C1218   1.401       .  A
C1214      C2733   1.400       .  A
C1214      C1215   1.397       .  A
C1214      H1227   1.083       .  S
C1215      C2736   1.415       .  A
C1215      H1228   1.077       .  S
C1216      C2735   1.415       .  A
C1216      C1222   1.429       .  A
C1216      C1217   1.421       .  A
C1217      C1219   1.399       .  A
C1217      C1218   1.402       .  A
C1218      H1229   1.084       .  S
C1219      C1220   1.388       .  A
C1219      H1230   1.084       .  S
C1220      C1221   1.399       .  A
C1220      H1231   1.084       .  S
C1221      C1222   1.421       .  A
C1221      C1226   1.404       .  A
C1222      C2743   1.412       .  A
C1223      C2742   1.412       .  A
C1223      C1224   1.396       .  A
C1223      H1232   1.077       .  S
C1224      C2745   1.405       .  A
C1224      H1233   1.082       .  S
C1225      C2744   1.405       .  A
C1225      C1226   1.405       .  A
C1226      H1234   1.082       .  S
C1235      C2756   1.401   1_545  A
C1235      C1240   1.400   1_545  A
C1236      C2755   1.400   1_565  A
C1236      C1237   1.396       .  A
C1236      H1249   1.083   1_565  S
C1237      C2758   1.415       .  A
C1237      H1250   1.077       .  S
C1238      C2757   1.415       .  A
C1238      C1244   1.428       .  A
C1238      C1239   1.422       .  A
C1239      C1241   1.399       .  A
C1239      C1240   1.402       .  A
C1240      H1251   1.084       .  S
C1241      C1242   1.388       .  A
C1241      H1252   1.084       .  S
C1242      C1243   1.398       .  A
C1242      H1253   1.084       .  S
C1243      C1244   1.424       .  A
C1243      C1248   1.402       .  A
C1244      C2765   1.416       .  A
C1245      C2764   1.416       .  A
C1245      C1246   1.396       .  A
C1245      H1254   1.077       .  S
C1246      C2767   1.395       .  A
C1246      H1255   1.084       .  S
C1247      C2766   1.395       .  A
C1247      C1248   1.394       .  A
C1248      H1256   1.085       .  S
C1257      C1258   1.399       .  A
C1257      C1262   1.402       .  A
C1258      C1259   1.395       .  A
C1258      H1271   1.083       .  S
C1259      C1260   1.416       .  A
C1259      H1272   1.077       .  S
C1260      C1266   1.432       .  A
C1260      C1261   1.422       .  A
C1261      C1263   1.401       .  A
C1261      C1262   1.409       .  A
C1262      H1273   1.084       .  S
C1263      C1264   1.393       .  A
C1263      H1274   1.084       .  S
C1264      C1265   1.401       .  A
C1264      H1275   1.084       .  S
C1265      C1266   1.423       .  A
C1265      C1270   1.412       .  A
C1266      C1267   1.413       .  A
C1267      C1268   1.394       .  A
C1267      H1276   1.077       .  S
C1268      C1269   1.402       .  A
C1268      H1277   1.083       .  S
C1269      C1270   1.405       .  A
C1270      H1278   1.084       .  S
C1279      C1280   1.401       .  A
C1279      C1284   1.402       .  A
C1280      C1281   1.396       .  A
C1280      H1293   1.083       .  S
C1281      C1282   1.414       .  A
C1281      H1294   1.077       .  S
C1282      C1288   1.430       .  A
C1282      C1283   1.422       .  A
C1283      C1285   1.400       .  A
C1283      C1284   1.406       .  A
C1284      H1295   1.084       .  S
C1285      C1286   1.390       .  A
C1285      H1296   1.084       .  S
C1286      C1287   1.399       .  A
C1286      H1297   1.084       .  S
C1287      C1288   1.422       .  A
C1287      C1292   1.405       .  A
C1288      C1289   1.415       .  A
C1289      C1290   1.396       .  A
C1289      H1298   1.077       .  S
C1290      C1291   1.399       .  A
C1290      H1299   1.082       .  S
C1291      C1292   1.402       .  A
C1292      H1300   1.084       .  S
C1301      C1302   1.398       .  A
C1301      C1306   1.399       .  A
C1302      C1303   1.395       .  A
C1303      C1304   1.415       .  A
C1303      H1316   1.077       .  S
C1304      C1310   1.429       .  A
C1304      C1305   1.423       .  A
C1305      C1307   1.399       .  A
C1305      C1306   1.405       .  A
C1306      H1317   1.085       .  S
C1307      C1308   1.390       .  A
C1307      H1318   1.084       .  S
C1308      C1309   1.399       .  A
C1308      H1319   1.084       .  S
C1309      C1310   1.423       .  A
C1309      C1314   1.406       .  A
C1310      C1311   1.415       .  A
C1311      C1312   1.395       .  A
C1311      H1320   1.077       .  S
C1312      C1313   1.400       .  A
C1312      H1321   1.083       .  S
C1313      C1314   1.400       .  A
C1314      H1322   1.084       .  S
C1323      C1324   1.403       .  A
C1323      C1328   1.401       .  A
C1324      C1325   1.399       .  A
C1324      H1337   1.083       .  S
C1325      C1326   1.415       .  A
C1325      H1338   1.077       .  S
C1326      C1332   1.433       .  A
C1326      C1327   1.424       .  A
C1327      C1329   1.399       .  A
C1327      C1328   1.406       .  A
C1328      H1339   1.084       .  S
C1329      C1330   1.389       .  A
C1329      H1340   1.084       .  S
C1330      C1331   1.398       .  A
C1331      C1332   1.423       .  A
C1331      C1336   1.403       .  A
C1332      C1333   1.418       .  A
C1333      C1334   1.400       .  A
C1333      H1342   1.077       .  S
C1334      C1335   1.398       .  A
C1334      H1343   1.083       .  S
C1335      C1336   1.397       .  A
C1345      C1346   1.401       .  A
C1345      C1350   1.402       .  A
C1346      C1347   1.399       .  A
C1346      H1359   1.083       .  S
C1347      C1348   1.415       .  A
C1347      H1360   1.078       .  S
C1348      C1354   1.431       .  A
C1348      C1349   1.422       .  A
C1349      C1351   1.399       .  A
C1349      C1350   1.405       .  A
C1350      H1361   1.084       .  S
C1351      C1352   1.390       .  A
C1351      H1362   1.084       .  S
C1352      C1353   1.399       .  A
C1352      H1363   1.084       .  S
C1353      C1354   1.421       .  A
C1353      C1358   1.405       .  A
C1354      C1355   1.414       .  A
C1355      C1356   1.398       .  A
C1355      H1364   1.078       .  S
C1356      C1357   1.401       .  A
C1356      H1365   1.077       .  S
C1357      C1358   1.405       .  A
C1358      H1366   1.083       .  S
C1367      C1368   1.398       .  A
C1367      C1372   1.401       .  A
C1368      C1369   1.398       .  A
C1368      H1381   1.083       .  S
C1369      C1370   1.417       .  A
C1369      H1382   1.077       .  S
C1370      C1376   1.429       .  A
C1370      C1371   1.422       .  A
C1371      C1373   1.399       .  A
C1371      C1372   1.402       .  A
C1372      H1383   1.084       .  S
C1373      C1374   1.388       .  A
C1373      H1384   1.084       .  S
C1374      C1375   1.399       .  A
C1374      H1385   1.084       .  S
C1375      C1376   1.423       .  A
C1375      C1380   1.403       .  A
C1376      C1377   1.414       .  A
C1377      C1378   1.396       .  A
C1377      H1386   1.077       .  S
C1378      C1379   1.401       .  A
C1378      H1387   1.083       .  S
C1379      C1380   1.401       .  A
C1380      H1388   1.084       .  S
C1389      C1390   1.396       .  A
C1389      C1394   1.400       .  A
C1390      C1391   1.391       .  A
C1391      C1392   1.414       .  A
C1391      H1404   1.077       .  S
C1392      C1398   1.425       .  A
C1392      C1393   1.422       .  A
C1393      C1395   1.400       .  A
C1393      C1394   1.406       .  A
C1394      H1405   1.084       .  S
C1395      C1396   1.392       .  A
C1395      H1406   1.084       .  S
C1396      C1397   1.400       .  A
C1396      H1407   1.084       .  S
C1397      C1398   1.423       .  A
C1397      C1402   1.407       .  A
C1398      C1399   1.412       .  A
C1399      C1400   1.389       .  A
C1399      H1408   1.077       .  S
C1400      C1401   1.398       .  A
C1400      H1409   1.083   1_556  S
C1401      C1402   1.400       .  A
C1402      H1410   1.084       .  S
C1411      C1412   1.408       .  A
C1411      C1416   1.409       .  A
C1412      C1413   1.393       .  A
C1412      H1425   1.082       .  S
C1413      C1414   1.408       .  A
C1413      H1426   1.080       .  S
C1414      C1420   1.422       .  A
C1414      C1415   1.417       .  A
C1415      C1417   1.402       .  A
C1415      C1416   1.406       .  A
C1416      H1427   1.078   1_556  S
C1417      C1418   1.395       .  A
C1417      H1428   1.084   1_556  S
C1418      C1419   1.402       .  A
C1418      H1429   1.084       .  S
C1419      C1420   1.417       .  A
C1419      C1424   1.406       .  A
C1420      C1421   1.410       .  A
C1421      C1422   1.394       .  A
C1421      H1430   1.080       .  S
C1422      C1423   1.403       .  A
C1422      H1431   1.083       .  S
C1423      C1424   1.408       .  A
C1424      H1432   1.084       .  S
C1433      C1434   1.399       .  A
C1433      C1438   1.400       .  A
C1434      C1435   1.391       .  A
C1434      H1447   1.083       .  S
C1435      C1436   1.413       .  A
C1435      H1448   1.077       .  S
C1436      C1442   1.425       .  A
C1436      C1437   1.423       .  A
C1437      C1439   1.399       .  A
C1437      C1438   1.403       .  A
C1438      H1449   1.085       .  S
C1439      C1440   1.389       .  A
C1439      H1450   1.084       .  S
C1440      C1441   1.399       .  A
C1440      H1451   1.084       .  S
C1441      C1442   1.423       .  A
C1441      C1446   1.401       .  A
C1442      C1443   1.416       .  A
C1443      C1444   1.392       .  A
C1443      H1452   1.076       .  S
C1444      C1445   1.394       .  A
C1444      H1453   1.084       .  S
C1445      C1446   1.396       .  A
C1446      H1454   1.085       .  S
C1455      C1456   1.397       .  A
C1455      C1460   1.398       .  A
C1456      C1457   1.394       .  A
C1456      H1469   1.084       .  S
C1457      C1458   1.415       .  A
C1457      H1470   1.077       .  S
C1458      C1464   1.430       .  A
C1458      C1459   1.424       .  A
C1459      C1461   1.399       .  A
C1459      C1460   1.406       .  A
C1460      H1471   1.085       .  S
C1461      C1462   1.390       .  A
C1461      H1472   1.084       .  S
C1462      C1463   1.400       .  A
C1462      H1473   1.084       .  S
C1463      C1464   1.422       .  A
C1463      C1468   1.405       .  A
C1464      C1465   1.416       .  A
C1465      C1466   1.397       .  A
C1465      H1474   1.077       .  S
C1466      C1467   1.400       .  A
C1466      H1475   1.083       .  S
C1467      C1468   1.403       .  A
C1468      H1476   1.084       .  S
C1477      C1478   1.398       .  A
C1477      C1482   1.395       .  A
C1478      C1479   1.398       .  A
C1478      H1491   1.083       .  S
C1479      C1480   1.417       .  A
C1479      H1492   1.077       .  S
C1480      C1486   1.429       .  A
C1480      C1481   1.424       .  A
C1481      C1483   1.397       .  A
C1481      C1482   1.398       .  A
C1482      H1493   1.085       .  S
C1483      C1484   1.385       .  A
C1483      H1494   1.084       .  S
C1484      C1485   1.398       .  A
C1484      H1495   1.084       .  S
C1485      C1486   1.422       .  A
C1485      C1490   1.398       .  A
C1486      C1487   1.418       .  A
C1487      C1488   1.399       .  A
C1487      H1496   1.077       .  S
C1488      C1489   1.397       .  A
C1488      H1497   1.083       .  S
C1489      C1490   1.398       .  A
C1490      H1498   1.085       .  S
C1499      C1500   1.395       .  A
C1499      C1504   1.396       .  A
C1500      C1501   1.390       .  A
C1500      H1513   1.084       .  S
C1501      C1502   1.414       .  A
C1501      H1514   1.077       .  S
C1502      C1508   1.422       .  A
C1502      C1503   1.423       .  A
C1503      C1505   1.399       .  A
C1503      C1504   1.402       .  A
C1504      H1515   1.085       .  S
C1505      C1506   1.390       .  A
C1505      H1516   1.084       .  S
C1506      C1507   1.399       .  A
C1506      H1517   1.084       .  S
C1507      C1508   1.422       .  A
C1507      C1512   1.401       .  A
C1508      C1509   1.414       .  A
C1509      C1510   1.391       .  A
C1509      H1518   1.077       .  S
C1510      C1511   1.395       .  A
C1510      H1519   1.084       .  S
C1511      C1512   1.397       .  A
C1512      H1520   1.085       .  S
N1521      C1526   1.351   1_565  A
N1521      C2285   1.349       .  A
N1521      H1553   1.040       .  S
N1522      C1530   1.349       .  A
N1523      C2288   1.352       .  A
N1523      C1527   1.354       .  A
N1523      H1554   1.039       .  S
N1524      C1532   1.347   1_565  A
C1525      N2281   1.350       .  A
C1525      C1533   1.388       .  A
C1525      C1541   1.411       .  A
C1526      C1542   1.410       .  A
C1526      C1534   1.386       .  A
C1527      C1535   1.388       .  A
C1527      C1544   1.416       .  A
C1528      N2283   1.351       .  A
C1528      C1543   1.413       .  A
C1528      C1536   1.387       .  A
C1529      C1541   1.410       .  A
C1529      C1537   1.386       .  A
C1530      C1544   1.410       .  A
C1530      C1538   1.387       .  A
C1531      C1539   1.386       .  A
C1531      C1542   1.408       .  A
C1532      C1540   1.386       .  A
C1532      C1543   1.406   1_545  A
C1533      C2294   1.374       .  A
C1533      H1545   1.082       .  S
C1534      C2293   1.374   1_545  A
C1534      H1546   1.082       .  S
C1535      C2296   1.375       .  A
C1535      H1547   1.082       .  S
C1536      C2295   1.374       .  A
C1536      H1548   1.082       .  S
C1537      H1549   1.082       .  S
C1538      H1550   1.082       .  S
C1539      H1551   1.082       .  S
C1540      H1552   1.082       .  S
C1541      C2205   1.474       .  S
C1542      C2237   1.481       .  S
C1543      C2259   1.472   1_565  S
C1544      C2215   1.481       .  S
C1555      C1556   1.421       .  A
C1555      C1560   1.412   1_554  A
C1555      C2171   1.506   1_554  S
C1556      C1557   1.398       .  A
C1556      C2271   1.467       .  S
C1557      C1558   1.395       .  A
C1557      H1562   1.086       .  S
C1558      C1559   1.410       .  A
C1558      C2249   1.480       .  S
C1559      C1560   1.404   1_554  A
C1559      C2161   1.479   1_554  S
C1560      H1561   1.083       .  S
O1563      V1571   1.891       .  S
O1563      C1573   1.263       .  A
O1564      V1571   1.895       .  S
O1564      C1574   1.264       .  A
O1565      V1571   1.901       .  S
O1565      C1575   1.265       .  A
O1566      V1571   1.898       .  S
O1566      C1576   1.265       .  A
O1567      V1572   1.899       .  S
O1567      C1576   1.264       .  A
O1568      V1572   1.900       .  S
O1568      C1575   1.266       .  A
O1569      V1572   1.904       .  S
O1569      C1574   1.266       .  A
O1570      V1572   1.901       .  S
O1570      C1573   1.265       .  A
V1571      V1572   2.086       .  T
C1573      C2193   1.474       .  S
C1574      C2139   1.482       .  S
C1575      C2105   1.482       .  S
C1576      C2227   1.479       .  S
N1577      C2342   1.354   1_545  A
N1577      C1581   1.354       .  A
N1577      H1609   1.041       .  S
N1578      C1586   1.349   1_455  A
N1579      C2344   1.352   1_545  A
N1579      C1583   1.353       .  A
N1579      H1610   1.040       .  S
N1580      C1588   1.351       .  A
C1581      C1589   1.390   1_545  A
C1581      C1597   1.422       .  A
C1582      N2337   1.353       .  A
C1582      C1598   1.410       .  A
C1582      C1590   1.384       .  A
C1583      C1591   1.389   1_545  A
C1583      C1600   1.416       .  A
C1584      N2339   1.352       .  A
C1584      C1599   1.412       .  A
C1584      C1592   1.386       .  A
C1585      C1597   1.416       .  A
C1585      C1593   1.387       .  A
C1586      C1600   1.409       .  A
C1586      C1594   1.385       .  A
C1587      C1595   1.385       .  A
C1587      C1598   1.409       .  A
C1588      C1596   1.387       .  A
C1588      C1599   1.412       .  A
C1589      C2350   1.377       .  A
C1589      H1601   1.082       .  S
C1590      C2349   1.376       .  A
C1590      H1602   1.082       .  S
C1591      C2352   1.376       .  A
C1591      H1603   1.082       .  S
C1592      C2351   1.376       .  A
C1592      H1604   1.083       .  S
C1593      H1605   1.082       .  S
C1594      H1606   1.081       .  S
C1595      H1607   1.082       .  S
C1596      H1608   1.082       .  S
C1597      C2183   1.501       .  S
C1598      C2095   1.483       .  S
C1599      C2061   1.485       .  S
C1600      C2149   1.482       .  S
O1611      V1619   1.903       .  S
O1611      C1621   1.265       .  A
O1612      V1619   1.903       .  S
O1612      C1622   1.266       .  A
O1613      V1619   1.894       .  S
O1613      C1623   1.264       .  A
O1614      V1619   1.897       .  S
O1614      C1624   1.264       .  A
O1615      V1620   1.907       .  S
O1615      C1624   1.267       .  A
O1616      V1620   1.913       .  S
O1616      C1623   1.267       .  A
O1617      V1620   1.899       .  S
O1617      C1622   1.265       .  A
O1618      V1620   1.896       .  S
O1618      C1621   1.264       .  A
V1619      V1620   2.086       .  T
C1621      C2073   1.477       .  S
C1622      C2039   1.483       .  S
C1623      C2029   1.486       .  S
C1624      C2083   1.483       .  S
O1625      V1633   1.901       .  S
O1626      V1633   1.903       .  S
O1627      V1633   1.891       .  S
O1628      V1633   1.896       .  S
O1629      V1634   1.896       .  S
O1629      C1638   1.265   1_655  A
O1630      V1634   1.900       .  S
O1630      C1637   1.265   1_655  A
O1631      V1634   1.897       .  S
O1631      C1636   1.264   1_655  A
O1632      V1634   1.894       .  S
O1632      C1635   1.264   1_655  A
C1635      C1973   1.476       .  S
C1636      C1963   1.480   1_545  S
C1637      C1929   1.476       .  S
C1638      C2755   1.476       .  S
N1639      C1644   1.354       .  A
N1639      C1643   1.352       .  A
N1639      H1671   1.038       .  S
N1640      C1647   1.350       .  A
N1640      C1648   1.351       .  A
N1641      C1646   1.352       .  A
N1641      C1645   1.353       .  A
N1641      H1672   1.036       .  S
N1642      C1649   1.350       .  A
N1642      C1650   1.350       .  A
C1643      C1651   1.388       .  A
C1643      C1659   1.416       .  A
C1644      C1660   1.414       .  A
C1644      C1652   1.386       .  A
C1645      C1653   1.387   1_455  A
C1645      C1662   1.414       .  A
C1646      C1661   1.414       .  A
C1646      C1654   1.388   1_455  A
C1647      C1659   1.412       .  A
C1647      C1655   1.387       .  A
C1648      C1662   1.411       .  A
C1648      C1656   1.386       .  A
C1649      C1657   1.386       .  A
C1649      C1660   1.411       .  A
C1650      C1658   1.387       .  A
C1650      C1661   1.412       .  A
C1651      C1652   1.374       .  A
C1651      H1663   1.082   1_455  S
C1652      H1664   1.082   1_455  S
C1653      C1654   1.374       .  A
C1653      H1665   1.082       .  S
C1654      H1666   1.082       .  S
C1655      C1656   1.372       .  A
C1655      H1667   1.082       .  S
C1656      H1668   1.082       .  S
C1657      C1658   1.371       .  A
C1657      H1669   1.082       .  S
C1658      H1670   1.082       .  S
C1659      C1907   1.482       .  S
C1660      C1951   1.481       .  S
C1661      C1941   1.477       .  S
C1662      C1885   1.480       .  S
C1673      C1674   1.417   1_455  A
C1673      C1678   1.406       .  A
C1673      C1919   1.486       .  S
C1674      C1675   1.401       .  A
C1674      C1863   1.483       .  S
C1675      C1676   1.402       .  A
C1675      H1680   1.085       .  S
C1676      C1677   1.412   1_655  A
C1676      C1853   1.480       .  S
C1677      C1678   1.402       .  A
C1677      C1897   1.482       .  S
C1678      H1679   1.084       .  S
C1681      C1687   1.538       .  S
C1681      C1685   1.543       .  S
C1681      C1985   1.528       .  S
C1682      H1689   1.086       .  S
C1682      C1683   1.367       .  D
C1683      C2051   1.486       .  S
C1684      C1688   1.528       .  S
C1684      C1686   1.538       .  S
C1684      H1690   1.111       .  S
C1685      H1691   1.082       .  S
C1685      C1686   1.367       .  D
C1686      C2017   1.483       .  S
C1687      H1692   1.086       .  S
C1687      C1688   1.362       .  D
C1688      C2007   1.467       .  S
N1693      C1698   1.353       .  A
N1693      C1697   1.350       .  A
N1693      H1725   1.038       .  S
N1694      C1701   1.350       .  A
N1694      C1702   1.351       .  A
N1695      C1700   1.352       .  A
N1695      C1699   1.356       .  A
N1695      H1726   1.038       .  S
N1696      C1703   1.351       .  A
N1696      C1704   1.349       .  A
C1697      C1705   1.387       .  A
C1697      C1713   1.411       .  A
C1698      C1714   1.413       .  A
C1698      C1706   1.387       .  A
C1699      C1707   1.387       .  A
C1699      C1716   1.417       .  A
C1700      C1715   1.417       .  A
C1700      C1708   1.388       .  A
C1701      C1713   1.411       .  A
C1701      C1709   1.386       .  A
C1702      C1716   1.413       .  A
C1702      C1710   1.387       .  A
C1703      C1711   1.385       .  A
C1703      C1714   1.409       .  A
C1704      C1712   1.388       .  A
C1704      C1715   1.412       .  A
C1705      C1706   1.373       .  A
C1705      H1717   1.082   1_655  S
C1706      H1718   1.082   1_655  S
C1707      C1708   1.376       .  A
C1707      H1719   1.082       .  S
C1708      H1720   1.082       .  S
C1709      C1710   1.371       .  A
C1709      H1721   1.082       .  S
C1710      H1722   1.082       .  S
C1711      C1712   1.373       .  A
C1711      H1723   1.082       .  S
C1712      H1724   1.082       .  S
C1713      C1831   1.475       .  S
C1714      C1875   1.483       .  S
C1715      C1841   1.479       .  S
C1716      C1797   1.487       .  S
O1727      V1735   1.897       .  S
O1727      C1737   1.264       .  A
O1728      V1735   1.894       .  S
O1728      C1738   1.264       .  A
O1729      V1735   1.905       .  S
O1729      C1739   1.266       .  A
O1730      V1735   1.907       .  S
O1730      C1740   1.266       .  A
O1731      V1736   1.899       .  S
O1732      V1736   1.902       .  S
O1733      V1736   1.901       .  S
O1734      V1736   1.898       .  S
C1737      C2579   1.476   1_545  S
C1738      C1753   1.475       .  S
C1739      C2535   1.481   1_545  S
C1740      C1809   1.484       .  S
C1741      C1742   1.538       .  S
C1741      C1747   1.535       .  S
C1741      C1765   1.524       .  S
C1742      H1749   1.083       .  S
C1742      C1743   1.366       .  D
C1743      C1744   1.541   1_655  S
C1743      C2117   1.482       .  S
C1744      C1748   1.533   1_455  S
C1744      H1750   1.110       .  S
C1745      H1751   1.086       .  S
C1745      C1746   1.365       .  D
C1746      C2127   1.489       .  S
C1747      H1752   1.086       .  S
C1747      C1748   1.363       .  D
C1748      C1787   1.473       .  S
C1753      C1754   1.400       .  A
C1754      C1755   1.395       .  A
C1754      H1767   1.083       .  S
C1755      C1756   1.415       .  A
C1755      H1768   1.077       .  S
C1756      C1762   1.428       .  A
C1757      C1759   1.398       .  A
C1757      C1758   1.402       .  A
C1758      H1769   1.085       .  S
C1759      C1760   1.388       .  A
C1759      H1770   1.084       .  S
C1760      C1761   1.399       .  A
C1760      H1771   1.084       .  S
C1761      C1766   1.401       .  A
C1762      C1763   1.412       .  A
C1763      C1764   1.394       .  A
C1763      H1772   1.077       .  S
C1764      C1765   1.405       .  A
C1764      H1773   1.079       .  S
C1766      H1774   1.085       .  S
C1775      C1776   1.400       .  A
C1775      C2499   1.480       .  S
C1776      C1777   1.397       .  A
C1776      H2549   1.083       .  S
C1777      H1790   1.077       .  S
C1778      C1784   1.431       .  A
C1778      C1779   1.422       .  A
C1779      C1781   1.399       .  A
C1779      C1780   1.405       .  A
C1780      H1791   1.084       .  S
C1781      C1782   1.389       .  A
C1781      H1792   1.084       .  S
C1782      C1783   1.399       .  A
C1782      H1793   1.084       .  S
C1783      C1784   1.424       .  A
C1783      C1788   1.405       .  A
C1785      C1786   1.396       .  A
C1785      H1794   1.077       .  S
C1786      C1787   1.396       .  A
C1786      H1795   1.084       .  S
C1788      H1796   1.083       .  S
H1789      C2536   1.083       .  S
C1797      C1802   1.399       .  A
C1798      C1799   1.397       .  A
C1798      H1811   1.083       .  S
C1799      C1800   1.417       .  A
C1799      H1812   1.077       .  S
C1800      C1806   1.431       .  A
C1801      C1803   1.400       .  A
C1801      C1802   1.406       .  A
C1802      H1813   1.085       .  S
C1803      C1804   1.391       .  A
C1803      H1814   1.084       .  S
C1804      C1805   1.400       .  A
C1804      H1815   1.084       .  S
C1805      C1810   1.408       .  A
C1806      C1807   1.414       .  A
C1807      C1808   1.397       .  A
C1807      H1816   1.077       .  S
C1808      H1817   1.083       .  S
C1809      C1810   1.403       .  A
C1810      H1818   1.084       .  S
C1819      C1820   1.400       .  A
C1819      C2497   1.475       .  S
C1820      C1821   1.394       .  A
C1820      H1833   1.083       .  S
C1821      C1822   1.414       .  A
C1821      H1834   1.077       .  S
C1822      C1828   1.427       .  A
C1823      C1825   1.399       .  A
C1823      C1824   1.401       .  A
C1824      H2595   1.084       .  S
C1825      C1826   1.387       .  A
C1825      H1836   1.084       .  S
C1826      C1827   1.398       .  A
C1826      H1837   1.084       .  S
C1827      C1832   1.400       .  A
C1828      C1829   1.416       .  A
C1829      C1830   1.393       .  A
C1829      H1838   1.077       .  S
C1830      C1831   1.395       .  A
C1830      H1839   1.084       .  S
C1832      H1840   1.085       .  S
H1835      C2584   1.084       .  S
C1841      C1842   1.396       .  A
C1842      C1843   1.394       .  A
C1842      H1855   1.084       .  S
C1843      C1844   1.416       .  A
C1843      H1856   1.077       .  S
C1844      C1850   1.426       .  A
C1845      C1847   1.399       .  A
C1845      C1846   1.401       .  A
C1846      H1857   1.085       .  S
C1847      C1848   1.389       .  A
C1847      H1858   1.084       .  S
C1848      C1849   1.399       .  A
C1848      H1859   1.084       .  S
C1849      C1854   1.402       .  A
C1850      C1851   1.414       .  A
C1851      C1852   1.393       .  A
C1851      H1860   1.077       .  S
C1852      C1853   1.399       .  A
C1852      H1861   1.084       .  S
C1854      H1862   1.084       .  S
C1863      C2624   1.399       .  A
C1864      C2623   1.400       .  A
C1864      C1865   1.393       .  A
C1864      H1877   1.084       .  S
C1865      C1866   1.413       .  A
C1865      H1878   1.077       .  S
C1866      C1872   1.430       .  A
C1867      C1869   1.399       .  A
C1867      C2628   1.406       .  A
C1868      C2627   1.406       .  A
C1868      H1879   1.085       .  S
C1869      C1870   1.391       .  A
C1869      H2640   1.084       .  S
C1870      C1871   1.400       .  A
C1870      H1881   1.084       .  S
C1871      C1876   1.405       .  A
C1872      C1873   1.417       .  A
C1873      C1874   1.396       .  A
C1873      H1882   1.077       .  S
C1874      C1875   1.396       .  A
C1874      H1883   1.084       .  S
C1876      H1884   1.085       .  S
H1880      C2629   1.084       .  S
C1885      C1886   1.396   1_455  A
C1886      C1887   1.395       .  A
C1886      H1899   1.083       .  S
C1887      H1900   1.077       .  S
C1888      C1894   1.429       .  A
C1888      C1889   1.424       .  A
C1889      C1891   1.399       .  A
C1889      C1890   1.403       .  A
C1890      H1901   1.085       .  S
C1891      C1892   1.389       .  A
C1891      H1902   1.084       .  S
C1892      C1893   1.399       .  A
C1892      H1903   1.084       .  S
C1893      C1894   1.423       .  A
C1893      C1898   1.403       .  A
C1895      C1896   1.395       .  A
C1895      H1904   1.077       .  S
C1896      C1897   1.399   1_655  A
C1896      H1905   1.083       .  S
C1898      H1906   1.085       .  S
C1907      C1912   1.398   1_455  A
C1908      C1909   1.396       .  A
C1908      H1921   1.084       .  S
C1909      H1922   1.077       .  S
C1910      C1916   1.428       .  A
C1910      C1911   1.423   1_455  A
C1911      C1913   1.399       .  A
C1911      C1912   1.402       .  A
C1912      H1923   1.085       .  S
C1913      C1914   1.389       .  A
C1913      H1924   1.084       .  S
C1914      C1915   1.399       .  A
C1914      H2685   1.084       .  S
C1915      C1916   1.422   1_655  A
C1915      C2680   1.403       .  A
C1917      C1918   1.395       .  A
C1917      H1926   1.077       .  S
C1918      H1927   1.083       .  S
C1919      C1920   1.401   1_445  A
C1920      C2675   1.403       .  A
C1920      H1928   1.084       .  S
H1925      C2674   1.084       .  S
C1929      C1934   1.402   1_455  A
C1930      C1931   1.392       .  A
C1930      H1943   1.083       .  S
C1931      H1944   1.077       .  S
C1932      C1938   1.427       .  A
C1932      C1933   1.422   1_455  A
C1933      C1935   1.400       .  A
C1933      C1934   1.405       .  A
C1934      H1945   1.084       .  S
C1935      C1936   1.390       .  A
C1935      H1946   1.084       .  S
C1936      C1937   1.399       .  A
C1936      H1947   1.084       .  S
C1937      C1938   1.423   1_655  A
C1937      C1942   1.403       .  A
C1939      C1940   1.393       .  A
C1939      H1948   1.077       .  S
C1940      H1949   1.084       .  S
C1941      C1942   1.397   1_455  A
C1942      H1950   1.085       .  S
C1951      C1952   1.396   1_455  A
C1952      C1953   1.396       .  A
C1952      H1965   1.083       .  S
C1953      C1954   1.417   1_655  A
C1953      H1966   1.077       .  S
C1954      C1960   1.430       .  A
C1955      C1957   1.399       .  A
C1955      C1956   1.403       .  A
C1956      H1967   1.085       .  S
C1957      C1958   1.389       .  A
C1957      H1968   1.084       .  S
C1958      C1959   1.399       .  A
C1958      H1969   1.084       .  S
C1959      C1964   1.405       .  A
C1960      C1961   1.414   1_455  A
C1961      C1962   1.396       .  A
C1961      H1970   1.077       .  S
C1962      C2723   1.401   1_655  A
C1962      H2731   1.083       .  S
C1963      C2722   1.401   1_455  A
C1964      H1972   1.084       .  S
H1971      C2722   1.083       .  S
C1973      C1978   1.401   1_455  A
C1974      C1975   1.397       .  A
C1974      H1987   1.083       .  S
C1975      H1988   1.077       .  S
C1976      C1982   1.429       .  A
C1976      C1977   1.422   1_455  A
C1977      C1979   1.399       .  A
C1977      C1978   1.403       .  A
C1978      H1989   1.085       .  S
C1979      C1980   1.389       .  A
C1979      H1990   1.084       .  S
C1980      C1981   1.400       .  A
C1980      H1991   1.084       .  S
C1981      C1982   1.421   1_655  A
C1981      C1986   1.405       .  A
C1983      C1984   1.395       .  A
C1983      H1992   1.077       .  S
C1984      H1993   1.083       .  S
C1985      C1986   1.407       .  A
C1986      H1994   1.078       .  S
C1995      C2000   1.401   1_455  A
C1995      C2398   1.479       .  S
C1996      C1997   1.397       .  A
C1996      H2009   1.083       .  S
C1997      H2010   1.077       .  S
C1998      C2004   1.429       .  A
C1998      C1999   1.422   1_455  A
C1999      C2001   1.399       .  A
C1999      C2000   1.402       .  A
C2000      H2011   1.084       .  S
C2001      C2002   1.388       .  A
C2001      H2012   1.084       .  S
C2002      C2003   1.398       .  A
C2002      H2013   1.084       .  S
C2003      C2004   1.424   1_655  A
C2003      C2008   1.403       .  A
C2005      C2006   1.396       .  A
C2005      H2014   1.077       .  S
C2006      H2015   1.083       .  S
C2007      C2008   1.394       .  A
C2008      H2016   1.085       .  S
C2017      C2018   1.399       .  A
C2017      C2022   1.401       .  A
C2018      C2019   1.394       .  A
C2018      H2031   1.083       .  S
C2019      C2020   1.415       .  A
C2019      H2032   1.077       .  S
C2020      C2026   1.431       .  A
C2020      C2021   1.423       .  A
C2021      C2023   1.401       .  A
C2021      C2022   1.409       .  A
C2022      H2033   1.084       .  S
C2023      C2024   1.393       .  A
C2023      H2034   1.084       .  S
C2024      C2025   1.401       .  A
C2024      H2035   1.084       .  S
C2025      C2026   1.423       .  A
C2025      C2030   1.411       .  A
C2026      C2027   1.413       .  A
C2027      C2028   1.393       .  A
C2027      H2036   1.077       .  S
C2028      C2029   1.401       .  A
C2028      H2037   1.083       .  S
C2029      C2030   1.404       .  A
C2030      H2038   1.084       .  S
C2039      C2040   1.401       .  A
C2039      C2044   1.403       .  A
C2040      C2041   1.396       .  A
C2040      H2053   1.083       .  S
C2041      C2042   1.414       .  A
C2041      H2054   1.077       .  S
C2042      C2048   1.430       .  A
C2042      C2043   1.422       .  A
C2043      C2045   1.400       .  A
C2043      C2044   1.407       .  A
C2044      H2055   1.084       .  S
C2045      C2046   1.391       .  A
C2045      H2056   1.084       .  S
C2046      C2047   1.400       .  A
C2046      H2057   1.084       .  S
C2047      C2048   1.422       .  A
C2047      C2052   1.406       .  A
C2048      C2049   1.414       .  A
C2049      C2050   1.396       .  A
C2049      H2058   1.077       .  S
C2050      C2051   1.400       .  A
C2050      H2059   1.082       .  S
C2051      C2052   1.403       .  A
C2052      H2060   1.084       .  S
C2061      C2062   1.398       .  A
C2061      C2066   1.399       .  A
C2062      C2063   1.395       .  A
C2062      H2835   1.084       .  S
C2063      C2064   1.416       .  A
C2063      H2076   1.077       .  S
C2064      C2070   1.430       .  A
C2064      C2065   1.423       .  A
C2065      C2067   1.399       .  A
C2065      C2066   1.405       .  A
C2066      H2077   1.085       .  S
C2067      C2068   1.390       .  A
C2067      H2078   1.084       .  S
C2068      C2069   1.399       .  A
C2068      H2079   1.084       .  S
C2069      C2070   1.423       .  A
C2069      C2074   1.405       .  A
C2070      C2071   1.415       .  A
C2071      C2072   1.396       .  A
C2071      H2080   1.077       .  S
C2072      C2073   1.400       .  A
C2072      H2081   1.083       .  S
C2073      C2074   1.401       .  A
C2074      H2082   1.084       .  S
H2075      C2822   1.084   1_545  S
C2083      C2084   1.402       .  A
C2083      C2088   1.401       .  A
C2084      C2085   1.398       .  A
C2084      H2097   1.083       .  S
C2085      C2086   1.415       .  A
C2085      H2098   1.077       .  S
C2086      C2092   1.432       .  A
C2086      C2087   1.424       .  A
C2087      C2089   1.399       .  A
C2087      C2088   1.406       .  A
C2088      H2099   1.084       .  S
C2089      C2090   1.389       .  A
C2089      H2100   1.084       .  S
C2090      C2091   1.399       .  A
C2090      H2861   1.084       .  S
C2091      C2092   1.423       .  A
C2091      C2096   1.404       .  A
C2092      C2093   1.418       .  A
C2093      C2094   1.400       .  A
C2093      H2102   1.077       .  S
C2094      C2095   1.397       .  A
C2094      H2103   1.083       .  S
C2095      C2096   1.397       .  A
C2096      H2864   1.085       .  S
H2101      C2850   1.084   1_545  S
H2104      C2856   1.085   1_545  S
C2105      C2106   1.402       .  A
C2105      C2110   1.401       .  A
C2106      C2107   1.400       .  A
C2106      H2119   1.083       .  S
C2107      C2108   1.415       .  A
C2107      H2120   1.078       .  S
C2108      C2114   1.432       .  A
C2108      C2109   1.423       .  A
C2109      C2111   1.398       .  A
C2109      C2110   1.403       .  A
C2110      H2121   1.084       .  S
C2111      C2112   1.387       .  A
C2111      H2122   1.084       .  S
C2112      C2113   1.398       .  A
C2112      H2123   1.084       .  S
C2113      C2114   1.422       .  A
C2113      C2118   1.401       .  A
C2114      C2115   1.417       .  A
C2115      C2116   1.401       .  A
C2115      H2124   1.078       .  S
C2116      C2117   1.399       .  A
C2116      H2125   1.083       .  S
C2117      C2118   1.400       .  A
C2118      H2126   1.085       .  S
C2127      C2128   1.399       .  A
C2127      C2132   1.404       .  A
C2128      C2129   1.398       .  A
C2128      H2141   1.081       .  S
C2129      C2130   1.416       .  A
C2129      H2142   1.077       .  S
C2130      C2136   1.430       .  A
C2130      C2131   1.421       .  A
C2131      C2133   1.400       .  A
C2131      C2132   1.405       .  A
C2132      H2143   1.084       .  S
C2133      C2134   1.391       .  A
C2133      H2144   1.084       .  S
C2134      C2135   1.400       .  A
C2134      H2145   1.084       .  S
C2135      C2136   1.423       .  A
C2135      C2140   1.407       .  A
C2136      C2137   1.413       .  A
C2137      C2138   1.395       .  A
C2137      H2146   1.077       .  S
C2138      C2139   1.401       .  A
C2138      H2147   1.083       .  S
C2139      C2140   1.403       .  A
C2140      H2148   1.084       .  S
C2149      C2150   1.396       .  A
C2149      C2154   1.400       .  A
C2150      C2151   1.391       .  A
C2150      H2923   1.084   1_545  S
C2151      C2152   1.414       .  A
C2151      H2164   1.077       .  S
C2152      C2158   1.426       .  A
C2152      C2153   1.422       .  A
C2153      C2155   1.400       .  A
C2153      C2154   1.406       .  A
C2154      H2165   1.084       .  S
C2155      C2156   1.392       .  A
C2155      H2166   1.084       .  S
C2156      C2157   1.400       .  A
C2156      H2167   1.084       .  S
C2157      C2158   1.423       .  A
C2157      C2162   1.407       .  A
C2158      C2159   1.412       .  A
C2159      C2160   1.389       .  A
C2159      H2168   1.077       .  S
C2160      C2161   1.398       .  A
C2160      H2169   1.083   1_556  S
C2161      C2162   1.400       .  A
C2162      H2170   1.084       .  S
H2163      C2910   1.084       .  S
C2171      C2172   1.408       .  A
C2171      C2176   1.409       .  A
C2172      C2173   1.393       .  A
C2172      H2185   1.082       .  S
C2173      C2174   1.408       .  A
C2173      H2186   1.080       .  S
C2174      C2180   1.422       .  A
C2174      C2175   1.417       .  A
C2175      C2177   1.402       .  A
C2175      C2176   1.406       .  A
C2176      H2187   1.079   1_556  S
C2177      C2178   1.396       .  A
C2177      H2188   1.084   1_556  S
C2178      C2179   1.402       .  A
C2178      H2189   1.084       .  S
C2179      C2180   1.417       .  A
C2179      C2184   1.406       .  A
C2180      C2181   1.410       .  A
C2181      C2182   1.394       .  A
C2181      H2190   1.080       .  S
C2182      C2183   1.404       .  A
C2182      H2191   1.083       .  S
C2183      C2184   1.409       .  A
C2184      H2192   1.083       .  S
C2193      C2194   1.399       .  A
C2193      C2198   1.401       .  A
C2194      C2195   1.392       .  A
C2194      H2207   1.083       .  S
C2195      C2196   1.413       .  A
C2195      H2208   1.077       .  S
C2196      C2202   1.426       .  A
C2196      C2197   1.423       .  A
C2197      C2199   1.399       .  A
C2197      C2198   1.404       .  A
C2198      H2209   1.084       .  S
C2199      C2200   1.390       .  A
C2199      H2210   1.084       .  S
C2200      C2201   1.399       .  A
C2200      H2211   1.084       .  S
C2201      C2202   1.423       .  A
C2201      C2206   1.402       .  A
C2202      C2203   1.416       .  A
C2203      C2204   1.392       .  A
C2203      H2212   1.076       .  S
C2204      C2205   1.394       .  A
C2204      H2213   1.084       .  S
C2205      C2206   1.396       .  A
C2206      H2214   1.085       .  S
C2215      C2216   1.397       .  A
C2215      C2220   1.398       .  A
C2216      C2217   1.393       .  A
C2216      H2229   1.084       .  S
C2217      C2218   1.415       .  A
C2217      H2230   1.077       .  S
C2218      C2224   1.428       .  A
C2218      C2219   1.424       .  A
C2219      C2221   1.399       .  A
C2219      C2220   1.405       .  A
C2220      H2231   1.085       .  S
C2221      C2222   1.390       .  A
C2221      H2232   1.084       .  S
C2222      C2223   1.400       .  A
C2222      H2233   1.084       .  S
C2223      C2224   1.422       .  A
C2223      C2228   1.405       .  A
C2224      C2225   1.414       .  A
C2225      C2226   1.394       .  A
C2225      H2234   1.077       .  S
C2226      C2227   1.400       .  A
C2226      H2235   1.083       .  S
C2227      C2228   1.402       .  A
C2228      H2236   1.084       .  S
C2237      C2238   1.399       .  A
C2237      C2242   1.396       .  A
C2238      C2239   1.398       .  A
C2238      H2251   1.083       .  S
C2239      C2240   1.416       .  A
C2239      H2252   1.077       .  S
C2240      C2246   1.429       .  A
C2240      C2241   1.424       .  A
C2241      C2243   1.397   1_545  A
C2241      C2242   1.399       .  A
C2242      H2253   1.085   1_545  S
C2243      C2244   1.385   1_565  A
C2243      H2254   1.084       .  S
C2244      C2245   1.398       .  A
C2244      H2255   1.084   1_545  S
C2245      C2246   1.422       .  A
C2245      C2250   1.398       .  A
C2246      C2247   1.418       .  A
C2247      C2248   1.400       .  A
C2247      H2256   1.077       .  S
C2248      C2249   1.398       .  A
C2248      H2257   1.083       .  S
C2249      C2250   1.398       .  A
C2250      H2258   1.085       .  S
C2259      C2260   1.395       .  A
C2259      C2264   1.396   1_545  A
C2260      C2261   1.390       .  A
C2260      H2273   1.084       .  S
C2261      C2262   1.414       .  A
C2261      H2274   1.077       .  S
C2262      C2268   1.423       .  A
C2262      C2263   1.423       .  A
C2263      C2265   1.399   1_545  A
C2263      C2264   1.402   1_545  A
C2264      H2275   1.085       .  S
C2265      C2266   1.390       .  A
C2265      H2276   1.084       .  S
C2266      C2267   1.399   1_565  A
C2266      H2277   1.084       .  S
C2267      C2268   1.423       .  A
C2267      C2272   1.402       .  A
C2268      C2269   1.415       .  A
C2269      C2270   1.391       .  A
C2269      H2278   1.077       .  S
C2270      C2271   1.395       .  A
C2270      H2279   1.084       .  S
C2271      C2272   1.397       .  A
C2272      H2280   1.085       .  S
N2281      C2286   1.352       .  A
N2281      H2313   1.039       .  S
N2282      C2290   1.350       .  A
N2283      C2287   1.354       .  A
N2283      H2314   1.039       .  S
N2284      C2292   1.347       .  A
C2285      C2293   1.388       .  A
C2285      C2301   1.410       .  A
C2286      C2302   1.410       .  A
C2286      C2294   1.386       .  A
C2287      C2295   1.388       .  A
C2287      C2304   1.416       .  A
C2288      C2303   1.413       .  A
C2288      C2296   1.387       .  A
C2289      C2301   1.410       .  A
C2289      C2297   1.386       .  A
C2290      C2304   1.410       .  A
C2290      C2298   1.386       .  A
C2291      C2299   1.386       .  A
C2291      C2302   1.408       .  A
C2292      C2300   1.386       .  A
C2292      C2303   1.406       .  A
C2293      H2305   1.082       .  S
C2294      H2306   1.082       .  S
C2295      H2307   1.082       .  S
C2296      H2308   1.082       .  S
C2297      H2309   1.082       .  S
C2298      H2310   1.082       .  S
C2299      H2311   1.082       .  S
C2300      H2312   1.082       .  S
C2301      C2965   1.473       .  S
C2302      C2997   1.479       .  S
C2303      C3019   1.472       .  S
C2304      C2975   1.483       .  S
C2315      C2316   1.420       .  A
C2315      C2320   1.412   1_554  A
C2315      C2931   1.504   1_554  S
C2316      C2317   1.398       .  A
C2316      C3031   1.467       .  S
C2317      C2318   1.394       .  A
C2317      H2322   1.086       .  S
C2318      C2319   1.410       .  A
C2318      C3009   1.477       .  S
C2319      C2320   1.404   1_554  A
C2319      C2921   1.479   1_554  S
C2320      H2321   1.083       .  S
O2323      V2331   1.887       .  S
O2323      C2333   1.262       .  A
O2324      V2331   1.892       .  S
O2324      C2334   1.263       .  A
O2325      V2331   1.903       .  S
O2325      C2335   1.266       .  A
O2326      V2331   1.902       .  S
O2326      C2336   1.266       .  A
O2327      V2332   1.899       .  S
O2327      C2336   1.264       .  A
O2328      V2332   1.900       .  S
O2328      C2335   1.265       .  A
O2329      V2332   1.902       .  S
O2329      C2334   1.266       .  A
O2330      V2332   1.900       .  S
O2330      C2333   1.265       .  A
V2331      V2332   2.086       .  T
C2333      C2953   1.471       .  S
C2334      C2899   1.478       .  S
C2335      C2865   1.484       .  S
C2336      C2987   1.482       .  S
N2337      C2341   1.354       .  A
N2337      H2369   1.041       .  S
N2338      C2346   1.349       .  A
N2339      C2343   1.353       .  A
N2339      H2370   1.040       .  S
N2340      C2348   1.350       .  A
C2341      C2349   1.390       .  A
C2341      C2357   1.422       .  A
C2342      C2358   1.411       .  A
C2342      C2350   1.384       .  A
C2343      C2351   1.389       .  A
C2343      C2360   1.416       .  A
C2344      C2359   1.412       .  A
C2344      C2352   1.386       .  A
C2345      C2357   1.415       .  A
C2345      C2353   1.387       .  A
C2346      C2360   1.408       .  A
C2346      C2354   1.385       .  A
C2347      C2355   1.386       .  A
C2347      C2358   1.409       .  A
C2348      C2356   1.387       .  A
C2348      C2359   1.412       .  A
C2349      H2361   1.082       .  S
C2350      H2362   1.082       .  S
C2351      H2363   1.082       .  S
C2352      H2364   1.082       .  S
C2353      H2365   1.082       .  S
C2354      H2366   1.082       .  S
C2355      H2367   1.082       .  S
C2356      H2368   1.082       .  S
C2357      C2943   1.501       .  S
C2358      C2855   1.483       .  S
C2359      C2821   1.484       .  S
C2360      C2909   1.481       .  S
O2371      V2379   1.903       .  S
O2371      C2381   1.265       .  A
O2372      V2379   1.901       .  S
O2372      C2382   1.265       .  A
O2373      V2379   1.895       .  S
O2373      C2383   1.265       .  A
O2374      V2379   1.898       .  S
O2374      C2384   1.264       .  A
O2375      V2380   1.907       .  S
O2375      C2384   1.267       .  A
O2376      V2380   1.914       .  S
O2376      C2383   1.268       .  A
O2377      V2380   1.899       .  S
O2377      C2382   1.265       .  A
O2378      V2380   1.895       .  S
O2378      C2381   1.264       .  A
V2379      V2380   2.086       .  T
C2381      C2833   1.476       .  S
C2382      C2799   1.481       .  S
C2383      C2789   1.487       .  S
C2384      C2843   1.484       .  S
O2385      V2393   1.901       .  S
O2386      V2393   1.902       .  S
O2387      V2393   1.895       .  S
O2388      V2393   1.899       .  S
O2389      V2394   1.896       .  S
O2389      C2398   1.265   1_655  A
O2390      V2394   1.899       .  S
O2390      C2397   1.264   1_655  A
O2391      V2394   1.897       .  S
O2391      C2396   1.264   1_655  A
O2392      V2394   1.893       .  S
O2392      C2395   1.264   1_655  A
C2395      C2733   1.477       .  S
C2396      C2723   1.480       .  S
C2397      C2689   1.478       .  S
N2399      C2404   1.354       .  A
N2399      C2403   1.353       .  A
N2399      H2431   1.038       .  S
N2400      C2407   1.351       .  A
N2400      C2408   1.351       .  A
N2401      C2406   1.352       .  A
N2401      C2405   1.352       .  A
N2401      H2432   1.036       .  S
N2402      C2409   1.350       .  A
N2402      C2410   1.351       .  A
C2403      C2411   1.388       .  A
C2403      C2419   1.416       .  A
C2404      C2420   1.414       .  A
C2404      C2412   1.386       .  A
C2405      C2413   1.387       .  A
C2405      C2422   1.415       .  A
C2406      C2421   1.414       .  A
C2406      C2414   1.387   1_455  A
C2407      C2419   1.412       .  A
C2407      C2415   1.386       .  A
C2408      C2422   1.412       .  A
C2408      C2416   1.386       .  A
C2409      C2417   1.386       .  A
C2409      C2420   1.411       .  A
C2410      C2418   1.387       .  A
C2410      C2421   1.413       .  A
C2411      C2412   1.374       .  A
C2411      H2423   1.082   1_455  S
C2412      H2424   1.082   1_455  S
C2413      C2414   1.374   1_455  A
C2413      H2425   1.082   1_455  S
C2414      H2426   1.082       .  S
C2415      C2416   1.373       .  A
C2415      H2427   1.082       .  S
C2416      H2428   1.082       .  S
C2417      C2418   1.372       .  A
C2417      H2429   1.082       .  S
C2418      H2430   1.082       .  S
C2419      C2667   1.484       .  S
C2420      C2711   1.481       .  S
C2421      C2701   1.479       .  S
C2422      C2645   1.480       .  S
C2433      C2434   1.417       .  A
C2433      C2438   1.407       .  A
C2433      C2679   1.486       .  S
C2434      C2435   1.402   1_455  A
C2434      C2623   1.485   1_455  S
C2435      C2436   1.402       .  A
C2435      H2440   1.085       .  S
C2436      C2437   1.413   1_655  A
C2436      C2613   1.483       .  S
C2437      C2438   1.404       .  A
C2437      C2657   1.484       .  S
C2438      H2439   1.085       .  S
C2441      C2447   1.534       .  S
C2441      C2445   1.542   1_455  S
C2441      C2745   1.525       .  S
C2442      H2449   1.085       .  S
C2442      C2443   1.367       .  D
C2443      C2811   1.483       .  S
C2444      C2448   1.528   1_655  S
C2444      C2446   1.540       .  S
C2444      H2450   1.110       .  S
C2445      H2451   1.084       .  S
C2445      C2446   1.367       .  D
C2446      C2777   1.485       .  S
C2447      H2452   1.087       .  S
C2447      C2448   1.361       .  D
C2448      C2767   1.465       .  S
N2453      C2458   1.353       .  A
N2453      C2457   1.352       .  A
N2453      H2485   1.037       .  S
N2454      C2461   1.351       .  A
N2454      C2462   1.351       .  A
N2455      C2460   1.354       .  A
N2455      C2459   1.355       .  A
N2455      H2486   1.037       .  S
N2456      C2463   1.352       .  A
N2456      C2464   1.350       .  A
C2457      C2465   1.386       .  A
C2457      C2473   1.412       .  A
C2458      C2474   1.414       .  A
C2458      C2466   1.388       .  A
C2459      C2467   1.387       .  A
C2459      C2476   1.417       .  A
C2460      C2475   1.418       .  A
C2460      C2468   1.388       .  A
C2461      C2473   1.412       .  A
C2461      C2469   1.386       .  A
C2462      C2476   1.413       .  A
C2462      C2470   1.387       .  A
C2463      C2471   1.385       .  A
C2463      C2474   1.411       .  A
C2464      C2472   1.387       .  A
C2464      C2475   1.413       .  A
C2465      C2466   1.374       .  A
C2465      H2477   1.082   1_655  S
C2466      H2478   1.082   1_655  S
C2467      C2468   1.374       .  A
C2467      H2479   1.082       .  S
C2468      H2480   1.082       .  S
C2469      C2470   1.371       .  A
C2469      H2481   1.082       .  S
C2470      H2482   1.082       .  S
C2471      C2472   1.373       .  A
C2471      H2483   1.082       .  S
C2472      H2484   1.082       .  S
C2473      C2591   1.479       .  S
C2474      C2635   1.482       .  S
C2475      C2601   1.484       .  S
C2476      C2557   1.485       .  S
O2487      V2495   1.894       .  S
O2487      C2497   1.264       .  A
O2488      V2495   1.895       .  S
O2488      C2498   1.264       .  A
O2489      V2495   1.902       .  S
O2489      C2499   1.266       .  A
O2490      V2495   1.902       .  S
O2490      C2500   1.265       .  A
O2491      V2496   1.902       .  S
O2492      V2496   1.899       .  S
O2493      V2496   1.894       .  S
O2494      V2496   1.896       .  S
C2498      C2513   1.475       .  S
C2500      C2569   1.482       .  S
C2501      C2502   1.539   1_455  S
C2501      C2507   1.537       .  S
C2501      C2525   1.525       .  S
C2502      H2509   1.086       .  S
C2502      C2503   1.367       .  D
C2503      C2504   1.542   1_655  S
C2503      C2877   1.487       .  S
C2504      C2508   1.532       .  S
C2504      H2510   1.110       .  S
C2505      H2511   1.081       .  S
C2505      C2506   1.366       .  D
C2506      C2887   1.482       .  S
C2507      H2512   1.086       .  S
C2507      C2508   1.362       .  D
C2508      C2547   1.471       .  S
C2513      C2514   1.400       .  A
C2514      C2515   1.394       .  A
C2514      H2527   1.083       .  S
C2515      C2516   1.414       .  A
C2515      H2528   1.078       .  S
C2516      C2522   1.426       .  A
C2517      C2519   1.399       .  A
C2517      C2518   1.403       .  A
C2518      H2529   1.085       .  S
C2519      C2520   1.390       .  A
C2519      H2530   1.084       .  S
C2520      C2521   1.401       .  A
C2520      H2531   1.084       .  S
C2521      C2526   1.404       .  A
C2522      C2523   1.412       .  A
C2523      C2524   1.393       .  A
C2523      H2532   1.077       .  S
C2524      C2525   1.404   1_655  A
C2524      H2533   1.083       .  S
C2526      H2534   1.078       .  S
C2535      C2536   1.400       .  A
C2536      C2537   1.397       .  A
C2537      H2550   1.077       .  S
C2538      C2544   1.429       .  A
C2538      C2539   1.422       .  A
C2539      C2541   1.401       .  A
C2539      C2540   1.407       .  A
C2540      H2551   1.085       .  S
C2541      C2542   1.392       .  A
C2541      H2552   1.084       .  S
C2542      C2543   1.400       .  A
C2542      H2553   1.084       .  S
C2543      C2544   1.423       .  A
C2543      C2548   1.407       .  A
C2545      C2546   1.396       .  A
C2545      H2554   1.077       .  S
C2546      C2547   1.395   1_655  A
C2546      H2555   1.083       .  S
C2548      H2556   1.085       .  S
C2557      C2562   1.398       .  A
C2558      C2559   1.397       .  A
C2558      H2571   1.083       .  S
C2559      C2560   1.416       .  A
C2559      H2572   1.077       .  S
C2560      C2566   1.431       .  A
C2561      C2563   1.399       .  A
C2561      C2562   1.405       .  A
C2562      H2573   1.085       .  S
C2563      C2564   1.390       .  A
C2563      H2574   1.084       .  S
C2564      C2565   1.400       .  A
C2564      H2575   1.084       .  S
C2565      C2570   1.406       .  A
C2566      C2567   1.415       .  A
C2567      C2568   1.398       .  A
C2567      H2576   1.077       .  S
C2568      H2577   1.083       .  S
C2569      C2570   1.403       .  A
C2570      H2578   1.084       .  S
C2579      C2580   1.400       .  A
C2580      C2581   1.395       .  A
C2580      H2593   1.083   1_565  S
C2581      C2582   1.415       .  A
C2581      H2594   1.077       .  S
C2582      C2588   1.428       .  A
C2583      C2585   1.400       .  A
C2583      C2584   1.404       .  A
C2585      C2586   1.390       .  A
C2585      H2596   1.084       .  S
C2586      C2587   1.399       .  A
C2586      H2597   1.084       .  S
C2587      C2592   1.403       .  A
C2588      C2589   1.415       .  A
C2589      C2590   1.394       .  A
C2589      H2598   1.077       .  S
C2590      C2591   1.396       .  A
C2590      H2599   1.084       .  S
C2592      H2600   1.085       .  S
C2601      C2602   1.397       .  A
C2602      C2603   1.396       .  A
C2602      H2615   1.083       .  S
C2603      C2604   1.417       .  A
C2603      H2616   1.077       .  S
C2604      C2610   1.428       .  A
C2605      C2607   1.399       .  A
C2605      C2606   1.401       .  A
C2606      H2617   1.085       .  S
C2607      C2608   1.389       .  A
C2607      H2618   1.084       .  S
C2608      C2609   1.399       .  A
C2608      H2619   1.084       .  S
C2609      C2614   1.404       .  A
C2610      C2611   1.413       .  A
C2611      C2612   1.393       .  A
C2611      H2620   1.077       .  S
C2612      C2613   1.399       .  A
C2612      H2621   1.084       .  S
C2614      H2622   1.085       .  S
C2624      C2625   1.394   1_545  A
C2624      H2637   1.084       .  S
C2625      C2626   1.414       .  A
C2625      H2638   1.077       .  S
C2626      C2632   1.430       .  A
C2627      C2629   1.399       .  A
C2628      H2639   1.084       .  S
C2629      C2630   1.390       .  A
C2630      C2631   1.399       .  A
C2630      H2641   1.084       .  S
C2631      C2636   1.405       .  A
C2632      C2633   1.417       .  A
C2633      C2634   1.396       .  A
C2633      H2642   1.077       .  S
C2634      C2635   1.396       .  A
C2634      H2643   1.083       .  S
C2636      H2644   1.085       .  S
C2645      C2646   1.396   1_455  A
C2646      C2647   1.396       .  A
C2646      H2659   1.083       .  S
C2647      H2660   1.077       .  S
C2648      C2654   1.429       .  A
C2648      C2649   1.424       .  A
C2649      C2651   1.399       .  A
C2649      C2650   1.403       .  A
C2650      H2661   1.085       .  S
C2651      C2652   1.389       .  A
C2651      H2662   1.084       .  S
C2652      C2653   1.399       .  A
C2652      H2663   1.084       .  S
C2653      C2654   1.423       .  A
C2653      C2658   1.403       .  A
C2655      C2656   1.396       .  A
C2655      H2664   1.077       .  S
C2656      C2657   1.399   1_655  A
C2656      H2665   1.083       .  S
C2658      H2666   1.085       .  S
C2667      C2672   1.398   1_455  A
C2668      C2669   1.394       .  A
C2668      H2681   1.084       .  S
C2669      H2682   1.077       .  S
C2670      C2676   1.428       .  A
C2670      C2671   1.423   1_455  A
C2671      C2673   1.399       .  A
C2671      C2672   1.403       .  A
C2672      H2683   1.085       .  S
C2673      C2674   1.389       .  A
C2673      H2684   1.084       .  S
C2674      C2675   1.399       .  A
C2675      C2676   1.422   1_655  A
C2677      C2678   1.394   1_565  A
C2677      H2686   1.077       .  S
C2678      H2687   1.084       .  S
C2679      C2680   1.401   1_455  A
C2680      H2688   1.084       .  S
C2689      C2694   1.403   1_455  A
C2690      C2691   1.393       .  A
C2690      H2703   1.083       .  S
C2691      H2704   1.077       .  S
C2692      C2698   1.428       .  A
C2692      C2693   1.422   1_455  A
C2693      C2695   1.400       .  A
C2693      C2694   1.405       .  A
C2694      H2705   1.084       .  S
C2695      C2696   1.391       .  A
C2695      H2706   1.084       .  S
C2696      C2697   1.399       .  A
C2696      H2707   1.084       .  S
C2697      C2698   1.423   1_655  A
C2697      C2702   1.405       .  A
C2699      C2700   1.394       .  A
C2699      H2708   1.077       .  S
C2700      H2709   1.084       .  S
C2701      C2702   1.398   1_455  A
C2702      H2710   1.085       .  S
C2711      C2712   1.396   1_455  A
C2712      C2713   1.396       .  A
C2712      H2725   1.083       .  S
C2713      C2714   1.416   1_655  A
C2713      H2726   1.077       .  S
C2714      C2720   1.430       .  A
C2715      C2717   1.399       .  A
C2715      C2716   1.405       .  A
C2716      H2727   1.085       .  S
C2717      C2718   1.390       .  A
C2717      H2728   1.084       .  S
C2718      C2719   1.399       .  A
C2718      H2729   1.084       .  S
C2719      C2724   1.406       .  A
C2720      C2721   1.415   1_455  A
C2721      C2722   1.396       .  A
C2721      H2730   1.077       .  S
C2724      H2732   1.084       .  S
C2733      C2738   1.401   1_455  A
C2734      C2735   1.397       .  A
C2734      H2747   1.083       .  S
C2735      H2748   1.077       .  S
C2736      C2742   1.429       .  A
C2736      C2737   1.421   1_455  A
C2737      C2739   1.399       .  A
C2737      C2738   1.401       .  A
C2738      H2749   1.084       .  S
C2739      C2740   1.388       .  A
C2739      H2750   1.084       .  S
C2740      C2741   1.399       .  A
C2740      H2751   1.084       .  S
C2741      C2742   1.421   1_655  A
C2741      C2746   1.403       .  A
C2743      C2744   1.395       .  A
C2743      H2752   1.077       .  S
C2744      H2753   1.082       .  S
C2745      C2746   1.405   1_455  A
C2746      H2754   1.081       .  S
C2755      C2760   1.400   1_445  A
C2756      C2757   1.396       .  A
C2756      H2769   1.083   1_565  S
C2757      H2770   1.077       .  S
C2758      C2764   1.428       .  A
C2758      C2759   1.422   1_455  A
C2759      C2761   1.399       .  A
C2759      C2760   1.401       .  A
C2760      H2771   1.084       .  S
C2761      C2762   1.387       .  A
C2761      H2772   1.084       .  S
C2762      C2763   1.398       .  A
C2762      H2773   1.084       .  S
C2763      C2764   1.424   1_655  A
C2763      C2768   1.401       .  A
C2765      C2766   1.395       .  A
C2765      H2774   1.077       .  S
C2766      H2775   1.084       .  S
C2767      C2768   1.394   1_455  A
C2768      H2776   1.085       .  S
C2777      C2778   1.399       .  A
C2777      C2782   1.402       .  A
C2778      C2779   1.395       .  A
C2778      H2791   1.083       .  S
C2779      C2780   1.415       .  A
C2779      H2792   1.077       .  S
C2780      C2786   1.431       .  A
C2780      C2781   1.422       .  A
C2781      C2783   1.401       .  A
C2781      C2782   1.409       .  A
C2782      H2793   1.084       .  S
C2783      C2784   1.394       .  A
C2783      H2794   1.084       .  S
C2784      C2785   1.401       .  A
C2784      H2795   1.084       .  S
C2785      C2786   1.423       .  A
C2785      C2790   1.412       .  A
C2786      C2787   1.413       .  A
C2787      C2788   1.394       .  A
C2787      H2796   1.077       .  S
C2788      C2789   1.402       .  A
C2788      H2797   1.083       .  S
C2789      C2790   1.405       .  A
C2790      H2798   1.084       .  S
C2799      C2800   1.401       .  A
C2799      C2804   1.402       .  A
C2800      C2801   1.397       .  A
C2800      H2813   1.083       .  S
C2801      C2802   1.415       .  A
C2801      H2814   1.077       .  S
C2802      C2808   1.430       .  A
C2802      C2803   1.422       .  A
C2803      C2805   1.399       .  A
C2803      C2804   1.405       .  A
C2804      H2815   1.084       .  S
C2805      C2806   1.390       .  A
C2805      H2816   1.084       .  S
C2806      C2807   1.399       .  A
C2806      H2817   1.084       .  S
C2807      C2808   1.422       .  A
C2807      C2812   1.404       .  A
C2808      C2809   1.415       .  A
C2809      C2810   1.397       .  A
C2809      H2818   1.077       .  S
C2810      C2811   1.399       .  A
C2810      H2819   1.083       .  S
C2811      C2812   1.401       .  A
C2812      H2820   1.084       .  S
C2821      C2822   1.397       .  A
C2821      C2826   1.399       .  A
C2822      C2823   1.394       .  A
C2823      C2824   1.415       .  A
C2823      H2836   1.077       .  S
C2824      C2830   1.429       .  A
C2824      C2825   1.423       .  A
C2825      C2827   1.399       .  A
C2825      C2826   1.405       .  A
C2826      H2837   1.085       .  S
C2827      C2828   1.390       .  A
C2827      H2838   1.084       .  S
C2828      C2829   1.400       .  A
C2828      H2839   1.084       .  S
C2829      C2830   1.423       .  A
C2829      C2834   1.406       .  A
C2830      C2831   1.414       .  A
C2831      C2832   1.394       .  A
C2831      H2840   1.077       .  S
C2832      C2833   1.399       .  A
C2832      H2841   1.083       .  S
C2833      C2834   1.401       .  A
C2834      H2842   1.085       .  S
C2843      C2844   1.403       .  A
C2843      C2848   1.401       .  A
C2844      C2845   1.399       .  A
C2844      H2857   1.083       .  S
C2845      C2846   1.415       .  A
C2845      H2858   1.077       .  S
C2846      C2852   1.433       .  A
C2846      C2847   1.423       .  A
C2847      C2849   1.399       .  A
C2847      C2848   1.406       .  A
C2848      H2859   1.084       .  S
C2849      C2850   1.388       .  A
C2849      H2860   1.084       .  S
C2850      C2851   1.398       .  A
C2851      C2852   1.423       .  A
C2851      C2856   1.403       .  A
C2852      C2853   1.418       .  A
C2853      C2854   1.400       .  A
C2853      H2862   1.077       .  S
C2854      C2855   1.398       .  A
C2854      H2863   1.083       .  S
C2855      C2856   1.397       .  A
C2865      C2866   1.402       .  A
C2865      C2870   1.402       .  A
C2866      C2867   1.399       .  A
C2866      H2879   1.083       .  S
C2867      C2868   1.415       .  A
C2867      H2880   1.077       .  S
C2868      C2874   1.432       .  A
C2868      C2869   1.422       .  A
C2869      C2871   1.399       .  A
C2869      C2870   1.405       .  A
C2870      H2881   1.084       .  S
C2871      C2872   1.389       .  A
C2871      H2882   1.084       .  S
C2872      C2873   1.399       .  A
C2872      H2883   1.084       .  S
C2873      C2874   1.422       .  A
C2873      C2878   1.404       .  A
C2874      C2875   1.415       .  A
C2875      C2876   1.399       .  A
C2875      H2884   1.077       .  S
C2876      C2877   1.400       .  A
C2876      H2885   1.081       .  S
C2877      C2878   1.402       .  A
C2878      H2886   1.084       .  S
C2887      C2888   1.398       .  A
C2887      C2892   1.401       .  A
C2888      C2889   1.397       .  A
C2888      H2901   1.083       .  S
C2889      C2890   1.416       .  A
C2889      H2902   1.077       .  S
C2890      C2896   1.429       .  A
C2890      C2891   1.422       .  A
C2891      C2893   1.399       .  A
C2891      C2892   1.402       .  A
C2892      H2903   1.084       .  S
C2893      C2894   1.388       .  A
C2893      H2904   1.084       .  S
C2894      C2895   1.399       .  A
C2894      H2905   1.084       .  S
C2895      C2896   1.423       .  A
C2895      C2900   1.404       .  A
C2896      C2897   1.414       .  A
C2897      C2898   1.395       .  A
C2897      H2906   1.077       .  S
C2898      C2899   1.401       .  A
C2898      H2907   1.083       .  S
C2899      C2900   1.400       .  A
C2900      H2908   1.084       .  S
C2909      C2910   1.396       .  A
C2909      C2914   1.400       .  A
C2910      C2911   1.391       .  A
C2911      C2912   1.414       .  A
C2911      H2924   1.077       .  S
C2912      C2918   1.425       .  A
C2912      C2913   1.422       .  A
C2913      C2915   1.400       .  A
C2913      C2914   1.407       .  A
C2914      H2925   1.084       .  S
C2915      C2916   1.392       .  A
C2915      H2926   1.084       .  S
C2916      C2917   1.400       .  A
C2916      H2927   1.084       .  S
C2917      C2918   1.423       .  A
C2917      C2922   1.407       .  A
C2918      C2919   1.412       .  A
C2919      C2920   1.389       .  A
C2919      H2928   1.077       .  S
C2920      C2921   1.398       .  A
C2920      H2929   1.083   1_556  S
C2921      C2922   1.400       .  A
C2922      H2930   1.084       .  S
C2931      C2932   1.408       .  A
C2931      C2936   1.409       .  A
C2932      C2933   1.393       .  A
C2932      H2945   1.082       .  S
C2933      C2934   1.408       .  A
C2933      H2946   1.080       .  S
C2934      C2940   1.421       .  A
C2934      C2935   1.417       .  A
C2935      C2937   1.402       .  A
C2935      C2936   1.405       .  A
C2936      H2947   1.079   1_556  S
C2937      C2938   1.395       .  A
C2937      H2948   1.084   1_556  S
C2938      C2939   1.402       .  A
C2938      H2949   1.084       .  S
C2939      C2940   1.417       .  A
C2939      C2944   1.406       .  A
C2940      C2941   1.410       .  A
C2941      C2942   1.394       .  A
C2941      H2950   1.080       .  S
C2942      C2943   1.404       .  A
C2942      H2951   1.083       .  S
C2943      C2944   1.409       .  A
C2944      H2952   1.083       .  S
C2953      C2954   1.399       .  A
C2953      C2958   1.400       .  A
C2954      C2955   1.390       .  A
C2954      H2967   1.083       .  S
C2955      C2956   1.413       .  A
C2955      H2968   1.076       .  S
C2956      C2962   1.425       .  A
C2956      C2957   1.423       .  A
C2957      C2959   1.399       .  A
C2957      C2958   1.404       .  A
C2958      H2969   1.085       .  S
C2959      C2960   1.390       .  A
C2959      H2970   1.084       .  S
C2960      C2961   1.399       .  A
C2960      H2971   1.084       .  S
C2961      C2962   1.423       .  A
C2961      C2966   1.402       .  A
C2962      C2963   1.416       .  A
C2963      C2964   1.391       .  A
C2963      H2972   1.076       .  S
C2964      C2965   1.394       .  A
C2964      H2973   1.084       .  S
C2965      C2966   1.397       .  A
C2966      H2974   1.085       .  S
C2975      C2976   1.397       .  A
C2975      C2980   1.398       .  A
C2976      C2977   1.394       .  A
C2976      H2989   1.084       .  S
C2977      C2978   1.415       .  A
C2977      H2990   1.077       .  S
C2978      C2984   1.430       .  A
C2978      C2979   1.424       .  A
C2979      C2981   1.399       .  A
C2979      C2980   1.406       .  A
C2980      H2991   1.085       .  S
C2981      C2982   1.391       .  A
C2981      H2992   1.084       .  S
C2982      C2983   1.400       .  A
C2982      H2993   1.084       .  S
C2983      C2984   1.422       .  A
C2983      C2988   1.406       .  A
C2984      C2985   1.415       .  A
C2985      C2986   1.396       .  A
C2985      H2994   1.077       .  S
C2986      C2987   1.400       .  A
C2986      H2995   1.083       .  S
C2987      C2988   1.403       .  A
C2988      H2996   1.084       .  S
C2997      C2998   1.398       .  A
C2997      C3002   1.395       .  A
C2998      C2999   1.398       .  A
C2998      H3011   1.083       .  S
C2999      C3000   1.416       .  A
C2999      H3012   1.077       .  S
C3000      C3006   1.429       .  A
C3000      C3001   1.424       .  A
C3001      C3003   1.397       .  A
C3001      C3002   1.399       .  A
C3002      H3013   1.085       .  S
C3003      C3004   1.385       .  A
C3003      H3014   1.084       .  S
C3004      C3005   1.398       .  A
C3004      H3015   1.084       .  S
C3005      C3006   1.422       .  A
C3005      C3010   1.397       .  A
C3006      C3007   1.418       .  A
C3007      C3008   1.400       .  A
C3007      H3016   1.077       .  S
C3008      C3009   1.397       .  A
C3008      H3017   1.083       .  S
C3009      C3010   1.397       .  A
C3010      H3018   1.085       .  S
C3019      C3020   1.395       .  A
C3019      C3024   1.396       .  A
C3020      C3021   1.390       .  A
C3020      H3033   1.084       .  S
C3021      C3022   1.414       .  A
C3021      H3034   1.077       .  S
C3022      C3028   1.423       .  A
C3022      C3023   1.423       .  A
C3023      C3025   1.399       .  A
C3023      C3024   1.403       .  A
C3024      H3035   1.085       .  S
C3025      C3026   1.390       .  A
C3025      H3036   1.084       .  S
C3026      C3027   1.400       .  A
C3026      H3037   1.084       .  S
C3027      C3028   1.422       .  A
C3027      C3032   1.402       .  A
C3028      C3029   1.415       .  A
C3029      C3030   1.391       .  A
C3029      H3038   1.077       .  S
C3030      C3031   1.395       .  A
C3030      H3039   1.084       .  S
C3031      C3032   1.397       .  A
C3032      H3040   1.085       .  S
