geometry optimzed in LAMMPS
_audit_creation_date              2020-11-30 
_audit_creation_method            'lammps2cif' 
_symmetry_space_group_name_H-M    'P1' 
_symmetry_Int_Tables_number       1 
_symmetry_cell_setting            triclinic 
loop_ 
_symmetry_equiv_pos_as_xyz 
  x,y,z 
_cell_length_a                    46.05220281 
_cell_length_b                    45.96586922120913 
_cell_length_c                    45.99074149015358 
_cell_angle_alpha                 89.94533056107711 
_cell_angle_beta                  90.06830236111674 
_cell_angle_gamma                 89.92807143565679 
loop_ 
_atom_site_label 
_atom_site_type_symbol 
_atom_site_fract_x 
_atom_site_fract_y 
_atom_site_fract_z 
_atom_site_charge 
C1          C  0.22979671  0.87853440  0.97468145     0.80700
N2          N  0.22965572  0.90809366  0.97566714    -0.77600
C3          C  0.22943298  0.92219498  0.00171260     0.83200
N4          N  0.22892837  0.90649760  0.02688493    -0.77500
C5          C  0.22890238  0.87687310  0.02616477     0.83300
N6          N  0.22925179  0.86338603  0.99993345    -0.79200
C7          C  0.60325510  0.99835902  0.02278021     0.80700
N8          N  0.60527144  0.96881049  0.02310818    -0.77600
C9          C  0.60639873  0.95352925  0.99774225     0.83200
N10         N  0.60611424  0.96801821  0.97193028    -0.77500
C11         C  0.60446175  0.99755165  0.97137432     0.83300
N12         N  0.60293864  0.01243542  0.99682286    -0.79200
C13         C  0.85924413  0.96072451  0.30081731     0.80700
N14         N  0.88872968  0.96228427  0.30296482    -0.77600
C15         C  0.90490576  0.93750063  0.30556593     0.83200
N16         N  0.89144459  0.91118196  0.30608110    -0.77500
C17         C  0.86206129  0.90952584  0.30453138     0.83300
N18         N  0.84622300  0.93428454  0.30207768    -0.79200
C19         C  0.97972526  0.96284035  0.69966743     0.80700
N20         N  0.99330334  0.93659932  0.69993152    -0.77600
C21         C  0.97833103  0.91149150  0.69578396     0.83200
N22         N  0.94904100  0.91275743  0.69176096    -0.77500
C23         C  0.93501249  0.93890606  0.69163292     0.83300
N24         N  0.95048793  0.96381357  0.69558613    -0.79200
C25         C  0.93962575  0.62985955  0.05913178     0.80700
N26         N  0.94043524  0.62868438  0.02957018    -0.77600
C27         C  0.91537233  0.62831251  0.01380490     0.83200
N28         N  0.88925561  0.62904134  0.02779081    -0.77500
C29         C  0.88822424  0.62981015  0.05732287     0.83300
N30         N  0.91341629  0.63053808  0.07249877    -0.79200
C31         C  0.89218279  0.23238815  0.94254976     0.80700
N32         N  0.91757880  0.23181141  0.92753946    -0.77600
C33         C  0.94358493  0.23119785  0.94168339     0.83200
N34         N  0.94381487  0.23153972  0.97130364    -0.77500
C35         C  0.91850184  0.23234355  0.98656940     0.83300
N36         N  0.89274599  0.23253992  0.97206540    -0.79200
C37         C  0.60973976  0.87627748  0.97353600     0.80700
N38         N  0.60832300  0.90591861  0.97309803    -0.77600
C39         C  0.60822229  0.92148313  0.99830496     0.83200
N40         N  0.60982280  0.90730324  0.02418462    -0.77500
C41         C  0.61100621  0.87782489  0.02500162     0.83300
N42         N  0.61104009  0.86252552  0.99971763    -0.79200
C43         C  0.23227798  0.99920333  0.97757342     0.80700
N44         N  0.23136073  0.96964564  0.97718516    -0.77600
C45         C  0.22969198  0.95429882  0.00247568     0.83200
N46         N  0.22861094  0.96876020  0.02831106    -0.77500
C47         C  0.22952968  0.99835516  0.02884454     0.83300
N48         N  0.23160286  0.01326261  0.00346545    -0.79200
C49         C  0.85998222  0.96813737  0.68480332     0.80700
N50         N  0.88939142  0.96669818  0.68745106    -0.77600
C51         C  0.90309952  0.94034159  0.68824967     0.83200
N52         N  0.88707438  0.91539647  0.68734408    -0.77500
C53         C  0.85758221  0.91670775  0.68545900     0.83300
N54         N  0.84455346  0.94310010  0.68389925    -0.79200
C55         C  0.98249915  0.91508608  0.30818350     0.80700
N56         N  0.95296928  0.91396587  0.30672821    -0.77600
C57         C  0.93685846  0.93891925  0.30751568     0.83200
N58         N  0.95044322  0.96513093  0.30968819    -0.77500
C59         C  0.97985196  0.96634577  0.31188265     0.83300
N60         N  0.99541338  0.94135784  0.31101321    -0.79200
C61         C  0.89121521  0.63023235  0.93698966     0.80700
N62         N  0.91697959  0.62783229  0.92294224    -0.77600
C63         C  0.94241947  0.62511556  0.93753168     0.83200
N64         N  0.94204256  0.62533948  0.96719434    -0.77500
C65         C  0.91630138  0.62757062  0.98173655     0.83300
N66         N  0.89111456  0.63004811  0.96648945    -0.79200
C67         C  0.89323603  0.23475421  0.06306156     0.80700
N68         N  0.89331047  0.23295450  0.03357695    -0.77600
C69         C  0.91878783  0.23351805  0.01862524     0.83200
N70         N  0.94433342  0.23558292  0.03342371    -0.77500
C71         C  0.94449738  0.23732835  0.06297801     0.83300
N72         N  0.91881771  0.23715943  0.07750855    -0.79200
C73         C  0.35843256  0.46586676  0.80528153     0.80700
N74         N  0.38784760  0.46633557  0.80819494    -0.77600
C75         C  0.40340594  0.44109314  0.80848431     0.83200
N76         N  0.38932623  0.41515687  0.80564323    -0.77500
C77         C  0.35997270  0.41449065  0.80223710     0.83300
N78         N  0.34487496  0.43984410  0.80221204    -0.79200
C79         C  0.35799547  0.41390913  0.18906799     0.80700
N80         N  0.38754168  0.41359387  0.18995312    -0.77600
C81         C  0.40287126  0.43886269  0.18929071     0.83200
N82         N  0.38846593  0.46470968  0.18777433    -0.77500
C83         C  0.35898119  0.46537214  0.18657965     0.83300
N84         N  0.34401793  0.43993389  0.18714624    -0.79200
C85         C  0.10544617  0.37548410  0.53098902     0.80700
N86         N  0.10713117  0.40498632  0.53021988    -0.77600
C87         C  0.10830422  0.41938250  0.50440125     0.83200
N88         N  0.10791254  0.40409379  0.47917941    -0.77500
C89         C  0.10639080  0.37457976  0.47950599     0.83300
N90         N  0.10509508  0.36055934  0.50550858    -0.79200
O91         O  0.17303529  0.23614514  0.70287443    -0.78000
C92         C  0.22869702  0.24139644  0.77679194     0.83100
O93         O  0.21152577  0.13920515  0.71175051    -0.79100
O94         O  0.19788578  0.16098607  0.81570928    -0.80600
O95         O  0.11014602  0.20996369  0.78239377    -0.80400
O96         O  0.12670945  0.22713175  0.71237125    -0.79000
Zn97       Zn  0.19718386  0.20985115  0.72762060     1.55700
O98         O  0.14422010  0.20923447  0.81691147    -0.80400
Cd99       Cd  0.13099698  0.19561718  0.74491252     1.59700
Cd100      Cd  0.18181685  0.14461654  0.74569238     1.59600
O101        O  0.10956063  0.15777441  0.73240167    -0.80400
O102        O  0.17303852  0.18686395  0.75304841    -1.90900
Cd103      Cd  0.18186828  0.19720701  0.79450608     1.59900
O104        O  0.14371360  0.12330876  0.73432812    -0.80300
O105        O  0.21349188  0.22977600  0.79688652    -0.79000
C106        C  0.22481106  0.15803340  0.69632759     0.83500
C107        C  0.14622443  0.24082494  0.69818418     0.83200
O108        O  0.22468361  0.23480434  0.75021337    -0.78000
C109        C  0.11795791  0.21319550  0.80883556     0.84000
O110        O  0.22082588  0.18511153  0.70056300    -0.78000
C111        C  0.11751221  0.13127169  0.72981945     0.84100
C112        C  0.20301028  0.13459258  0.80885662     0.84500
O113        O  0.19853635  0.12503238  0.78316654    -0.80500
C114        C  0.73142725  0.37807679  0.52842233     0.80700
N115        N  0.73101945  0.40754343  0.52632788    -0.77600
C116        C  0.72915787  0.42066573  0.49986705     0.83200
N117        N  0.72698492  0.40403016  0.47539908    -0.77500
C118        C  0.72674266  0.37440032  0.47725600     0.83300
N119        N  0.72914542  0.36187509  0.50388873    -0.79200
C120        C  0.39471663  0.11696701  0.56434327     0.80700
N121        N  0.39405704  0.11626734  0.53476667    -0.77600
C122        C  0.41913471  0.11319517  0.51928356     0.83200
N123        N  0.44498365  0.11071221  0.53367191    -0.77500
C124        C  0.44570785  0.11070648  0.56331744     0.83300
N125        N  0.42052939  0.11400965  0.57810564    -0.79200
O126        O  0.61363125  0.23702408  0.74615672    -0.78000
C127        C  0.69239105  0.24643710  0.69712071     0.83100
O128        O  0.62764090  0.14118703  0.70961937    -0.79100
O129        O  0.72990141  0.16171172  0.72643708    -0.80600
O130        O  0.69507679  0.21298562  0.81353136    -0.80400
O131        O  0.62468538  0.23194094  0.79283182    -0.79000
Zn132      Zn  0.64179738  0.21229634  0.72382356     1.55700
O133        O  0.72888004  0.20981580  0.77928178    -0.80400
Cd134      Cd  0.65740521  0.20016339  0.79100372     1.59700
Cd135      Cd  0.65874420  0.14723493  0.74232177     1.59600
O136        O  0.64284963  0.16337277  0.81255657    -0.80400
O137        O  0.66625990  0.18967070  0.74948497    -1.90900
Cd138      Cd  0.70803163  0.19859682  0.74111052     1.59900
O139        O  0.64452137  0.12730420  0.78028159    -0.80300
O140        O  0.71202848  0.23292760  0.71143120    -0.79000
C141        C  0.61404435  0.15966977  0.69389570     0.83500
C142        C  0.60922732  0.24338716  0.77269815     0.83200
O143        O  0.66576319  0.23968476  0.69995158    -0.78000
C144        C  0.72165269  0.21449729  0.80559591     0.84000
O145        O  0.61826791  0.18682758  0.69718617    -0.78000
C146        C  0.63981579  0.13658374  0.80600584     0.84100
C147        C  0.72287565  0.13490401  0.72478534     0.84500
O148        O  0.69707216  0.12641094  0.73038991    -0.80500
C149        C  0.11848608  0.49503686  0.52954670     0.80700
N150        N  0.11461732  0.46580261  0.52940291    -0.77600
C151        C  0.11160686  0.45120097  0.50393074     0.83200
N152        N  0.11253778  0.46605321  0.47827590    -0.77500
C153        C  0.11635998  0.49543522  0.47809091     0.83300
N154        N  0.11950217  0.50957587  0.50384308    -0.79200
O155        O  0.16497422  0.74169993  0.79917783    -0.78000
C156        C  0.10910489  0.73921533  0.72311128     0.83100
O157        O  0.12788335  0.64312196  0.79227236    -0.79100
O158        O  0.14672245  0.65786342  0.68929482    -0.80600
O159        O  0.22927339  0.71403892  0.72171757    -0.80400
O160        O  0.21169508  0.73350905  0.79043575    -0.79000
Zn161      Zn  0.14213399  0.71345368  0.77492399     1.55700
O162        O  0.19522069  0.71250412  0.68737997    -0.80400
Cd163      Cd  0.20909970  0.70001520  0.75966538     1.59700
Cd164      Cd  0.16026074  0.64780706  0.76107891     1.59600
O165        O  0.23176063  0.66350937  0.77491829    -0.80400
O166        O  0.16746229  0.68973493  0.75124516    -1.90900
Cd167      Cd  0.15860683  0.69676866  0.70897010     1.59900
O168        O  0.19783360  0.62896154  0.77688261    -0.80300
O169        O  0.12433692  0.72626015  0.70388328    -0.79000
C170        C  0.11352981  0.66219203  0.80633583     0.83500
C171        C  0.19166821  0.74745708  0.80365522     0.83200
O172        O  0.11424197  0.73597377  0.75011583    -0.78000
C173        C  0.22127300  0.71770902  0.69534648     0.84000
O174        O  0.11770934  0.68921436  0.80185988    -0.78000
C175        C  0.22392896  0.63743727  0.78058379     0.84100
C176        C  0.14373989  0.63165151  0.69800053     0.84500
O177        O  0.14816835  0.62443312  0.72442388    -0.80500
C178        C  0.47920131  0.46852490  0.81299648     0.80700
N179        N  0.44971157  0.46787939  0.81135247    -0.77600
C180        C  0.43544008  0.44191815  0.81071382     0.83200
N181        N  0.45096091  0.41666856  0.81100403    -0.77500
C182        C  0.48051951  0.41702367  0.81231736     0.83300
N183        N  0.49427583  0.44313834  0.81329842    -0.79200
C184        C  0.38984457  0.73739051  0.55837436     0.80700
N185        N  0.41561499  0.73686027  0.57259983    -0.77600
C186        C  0.44111406  0.73825875  0.55794799     0.83200
N187        N  0.44063420  0.74008944  0.52847329    -0.77500
C188        C  0.41496749  0.74056555  0.51378840     0.83300
N189        N  0.38948543  0.73939601  0.52884248    -0.79200
C190        C  0.72969675  0.49580775  0.46995750     0.80700
N191        N  0.72799422  0.51166723  0.49479554    -0.77600
C192        C  0.72690973  0.49857866  0.52121930     0.83200
N193        N  0.72749382  0.46901927  0.52271824    -0.77500
C194        C  0.72903469  0.45274374  0.49799080     0.83300
N195        N  0.73004045  0.46624932  0.47164310    -0.79200
O196        O  0.72141132  0.74106502  0.74385900    -0.78000
C197        C  0.64359416  0.75050087  0.79686390     0.83100
O198        O  0.70969022  0.64777182  0.78726330    -0.79100
O199        O  0.60706381  0.66388325  0.77242451    -0.80600
O200        O  0.63962627  0.71132500  0.68186925    -0.80400
O201        O  0.70958532  0.73238663  0.69781598    -0.79000
Zn202      Zn  0.69409629  0.71750566  0.76860525     1.55700
O203        O  0.60639297  0.70987698  0.71720763    -0.80400
Cd204      Cd  0.67792196  0.69993376  0.70326332     1.59700
Cd205      Cd  0.67798088  0.65017878  0.75488564     1.59600
O206        O  0.69224869  0.66189744  0.68323380    -0.80400
O207        O  0.66969771  0.69212141  0.74558359    -1.90900
Cd208      Cd  0.62800196  0.70044095  0.75534019     1.59900
O209        O  0.69137725  0.62770592  0.71760938    -0.80300
O210        O  0.62395340  0.73535374  0.78438774    -0.79000
C211        C  0.72291834  0.66763451  0.80144611     0.83500
C212        C  0.72512755  0.74543936  0.71678000     0.83200
O213        O  0.67036375  0.74541899  0.79228173    -0.78000
C214        C  0.61334235  0.71297129  0.69054864     0.84000
O215        O  0.71828422  0.69445357  0.79632715    -0.78000
C216        C  0.69556735  0.63547201  0.69125086     0.84100
C217        C  0.61482777  0.63744431  0.77595899     0.84500
O218        O  0.64074254  0.62933108  0.77019754    -0.80500
C219        C  0.39109971  0.11451418  0.44349252     0.80700
N220        N  0.39213344  0.11423429  0.47303945    -0.77600
C221        C  0.41821615  0.11354924  0.48709263     0.83200
N222        N  0.44329928  0.11399980  0.47130045    -0.77500
C223        C  0.44250008  0.11475627  0.44166089     0.83300
N224        N  0.41623656  0.11491076  0.42821911    -0.79200
O225        O  0.61463713  0.23498607  0.25241301    -0.78000
C226        C  0.61084924  0.15664354  0.30628014     0.83100
O227        O  0.71002395  0.22632721  0.29258180    -0.79100
O228        O  0.69427882  0.12094258  0.27177512    -0.80600
O229        O  0.64310435  0.15850205  0.18753851    -0.80400
O230        O  0.62684542  0.22836480  0.20617242    -0.79000
Zn231      Zn  0.64017886  0.20868572  0.27636060     1.55700
O232        O  0.64239511  0.12220852  0.21975922    -0.80400
Cd233      Cd  0.65740030  0.19488672  0.20991205     1.59700
Cd234      Cd  0.70627539  0.19353092  0.26139173     1.59600
O235        O  0.69576323  0.20690409  0.18917182    -0.80400
O236        O  0.66467915  0.18475318  0.25178771    -1.90900
Cd237      Cd  0.65610120  0.14218291  0.25865064     1.59900
O238        O  0.72876175  0.20594224  0.22445100    -0.80300
O239        O  0.62433345  0.13747481  0.29126847    -0.79000
C240        C  0.69056951  0.24041239  0.30643131     0.83500
C241        C  0.61186025  0.24136188  0.22557768     0.83200
O242        O  0.61516038  0.18370572  0.30212550    -0.78000
C243        C  0.63921774  0.13173884  0.19378289     0.84000
O244        O  0.66372007  0.23527158  0.30213737    -0.78000
C245        C  0.72194239  0.20968916  0.19782031     0.84100
C246        C  0.72019091  0.12949256  0.27704708     0.84500
O247        O  0.72730313  0.15624213  0.27539334    -0.80500
C248        C  0.44138526  0.74177521  0.43753042     0.80700
N249        N  0.41589521  0.73928346  0.42288474    -0.77600
C250        C  0.39013709  0.73761863  0.43706719     0.83200
N251        N  0.38976164  0.73879718  0.46660143    -0.77500
C252        C  0.41507623  0.74115766  0.48172514     0.83300
N253        N  0.44077598  0.74243435  0.46709652    -0.79200
C254        C  0.47912407  0.46430687  0.19275190     0.80700
N255        N  0.44964894  0.46403804  0.19197005    -0.77600
C256        C  0.43490358  0.43845643  0.19030946     0.83200
N257        N  0.44990685  0.41282839  0.18951222    -0.77500
C258        C  0.47951428  0.41292905  0.18995660     0.83300
N259        N  0.49366256  0.43868418  0.19189902    -0.79200
O260        O  0.66801080  0.63782247  0.29989764    -0.78000
C261        C  0.61499052  0.71596200  0.30717254     0.83100
O262        O  0.62357725  0.65076245  0.20552673    -0.79100
O263        O  0.64839266  0.75354056  0.22316120    -0.80600
O264        O  0.73287344  0.71612033  0.26993493    -0.80400
O265        O  0.71408786  0.64669571  0.28892921    -0.79000
Zn266      Zn  0.64347349  0.66461122  0.27568318     1.55700
O267        O  0.69807221  0.74938324  0.27380337    -0.80400
Cd268      Cd  0.70959053  0.67917210  0.25743353     1.59700
Cd269      Cd  0.65730614  0.68079780  0.20894449     1.59600
O270        O  0.72829010  0.66566943  0.21876242    -0.80400
O271        O  0.66746356  0.68842874  0.25073132    -1.90900
Cd272      Cd  0.66003025  0.73028104  0.26015372     1.59900
O273        O  0.69300068  0.66578067  0.18558741    -0.80300
O274        O  0.62843559  0.73514453  0.29231505    -0.79000
C275        C  0.61013975  0.63652876  0.22517625     0.83500
C276        C  0.69499376  0.63273771  0.30341588     0.83200
O277        O  0.61939455  0.68890542  0.30306798    -0.78000
C278        C  0.72473548  0.74215030  0.27522497     0.84000
O279        O  0.61604910  0.64012451  0.25201886    -0.78000
C280        C  0.71952438  0.66203541  0.19266450     0.84100
C281        C  0.64439031  0.74608886  0.19676502     0.84500
O282        O  0.64608820  0.71952817  0.18885013    -0.80500
O283        O  0.11503661  0.68497602  0.19856822    -0.78000
C284        C  0.11087688  0.73973918  0.27505357     0.83100
O285        O  0.21093018  0.72515271  0.20828975    -0.79100
O286        O  0.19329600  0.70492975  0.31210332    -0.80600
O287        O  0.14466129  0.62015284  0.27846665    -0.80400
O288        O  0.12294313  0.63861752  0.20983133    -0.79000
Zn289      Zn  0.14081405  0.70912442  0.22410621     1.55700
O290        O  0.14101115  0.65504085  0.31190785    -0.80400
Cd291      Cd  0.15610419  0.64238611  0.24049977     1.59700
Cd292      Cd  0.20661170  0.69261440  0.23973308     1.59600
O293        O  0.19281193  0.62204364  0.22416286    -0.80400
O294        O  0.16465319  0.68438733  0.24861744    -1.90900
Cd295      Cd  0.15562435  0.69247851  0.29066758     1.59900
O296        O  0.22771993  0.65540569  0.22441709    -0.80300
O297        O  0.12479493  0.72574415  0.29463029    -0.79000
C298        C  0.19182413  0.73945387  0.19409688     0.83500
C299        C  0.10958108  0.65802847  0.19511931     0.83200
O300        O  0.11518154  0.73499257  0.24813483    -0.78000
C301        C  0.13936190  0.62831911  0.30446528     0.84000
O302        O  0.16481324  0.73526848  0.19830944    -0.78000
C303        C  0.21910677  0.62943402  0.21964150     0.84100
C304        C  0.21943428  0.70916290  0.30395074     0.84500
O305        O  0.22737562  0.70579295  0.27756966    -0.80500
O306        O  0.21984640  0.23931160  0.25339388    -0.78000
C307        C  0.14392839  0.24232399  0.30899329     0.83100
O308        O  0.21232667  0.14256171  0.29291342    -0.79100
O309        O  0.10826842  0.15966878  0.27624206    -0.80600
O310        O  0.13938385  0.21178122  0.19087529    -0.80400
O311        O  0.20863014  0.23089345  0.20729159    -0.79000
Zn312      Zn  0.19481893  0.21315405  0.27770556     1.55700
O313        O  0.10655111  0.20996746  0.22634155    -0.80400
Cd314      Cd  0.17734234  0.19879054  0.21174941     1.59700
Cd315      Cd  0.17982930  0.14673423  0.26102958     1.59600
O316        O  0.19126133  0.16222927  0.19004724    -0.80400
O317        O  0.17057353  0.18889209  0.25358512    -1.90900
Cd318      Cd  0.12898772  0.19695458  0.26288440     1.59900
O319        O  0.19332854  0.12651682  0.22261909    -0.80300
O320        O  0.12476337  0.22819166  0.29491996    -0.79000
C321        C  0.22637926  0.16209383  0.30683760     0.83500
C322        C  0.22335999  0.24447949  0.22640411     0.83200
O323        O  0.17087855  0.23837437  0.30412841    -0.78000
C324        C  0.11327827  0.21403135  0.19979891     0.84000
O325        O  0.22118496  0.18898433  0.30273016    -0.78000
C326        C  0.19608889  0.13572469  0.19652982     0.84100
C327        C  0.11608258  0.13323458  0.27886214     0.84500
O328        O  0.14226246  0.12521801  0.27422163    -0.80500
C329        C  0.54083350  0.51537086  0.21111014    -0.01500
C330        C  0.52997855  0.54257476  0.20219166     0.07100
C331        C  0.50232022  0.54428759  0.18954262    -0.07500
C332        C  0.48522417  0.51923298  0.18603454     0.04500
C333        C  0.49583226  0.49187807  0.19559897    -0.14700
C334        C  0.52380422  0.49046680  0.20791080    -0.08000
C335        C  0.54730681  0.56932705  0.20673687     0.05500
C336        C  0.56523204  0.57948045  0.18435584    -0.09100
C337        C  0.58509434  0.60209254  0.18926990     0.00500
C338        C  0.58735355  0.61482838  0.21727764     0.00300
C339        C  0.56822037  0.60529025  0.23919105    -0.12700
C340        C  0.54838994  0.58282975  0.23413944     0.00800
C341        C  0.60354833  0.61067037  0.16544189     0.40100
C342        C  0.52986931  0.57335474  0.25762328     0.36700
C343        C  0.56957288  0.51250838  0.22342149     0.36500
C344        C  0.45753778  0.52218684  0.17156443     0.37200
N345        N  0.61815414  0.61747562  0.14615347    -0.43600
N346        N  0.51497863  0.56572711  0.27638538    -0.44000
N347        N  0.43540969  0.52454435  0.15983036    -0.41400
N348        N  0.59265139  0.51025619  0.23315454    -0.42800
H349        H  0.53250571  0.46978630  0.21528955     0.13300
H350        H  0.49411672  0.56524449  0.18238716     0.09800
H351        H  0.56441362  0.56895773  0.16323029     0.10900
H352        H  0.56909180  0.61498988  0.26068711     0.16700
C353        C  0.31223844  0.74671029  0.41148144    -0.01500
C354        C  0.31181833  0.72899939  0.38647520     0.07100
C355        C  0.33669354  0.71324615  0.37890816    -0.07500
C356        C  0.36206284  0.71520661  0.39548536     0.04500
C357        C  0.36295902  0.73352926  0.42019626    -0.14700
C358        C  0.33769471  0.74874119  0.42823201    -0.08000
C359        C  0.28607383  0.72670807  0.36723141     0.05500
C360        C  0.28679976  0.74064811  0.34012544    -0.09100
C361        C  0.26483956  0.73607755  0.31955149     0.00500
C362        C  0.24152051  0.71718459  0.32603123     0.00300
C363        C  0.24023422  0.70421415  0.35371934    -0.12700
C364        C  0.26241803  0.70858199  0.37416004     0.00800
C365        C  0.26667564  0.75121105  0.29208685     0.40100
C366        C  0.26135422  0.69299086  0.40140423     0.36700
C367        C  0.28712513  0.76356379  0.41977670     0.36500
C368        C  0.38643752  0.69728809  0.38710350     0.37200
N369        N  0.26811033  0.76335843  0.27008288    -0.43600
N370        N  0.26060755  0.68039496  0.42318998    -0.44000
N371        N  0.40579859  0.68274058  0.38031087    -0.41400
N372        N  0.26698901  0.77711138  0.42636984    -0.42800
H373        H  0.33807705  0.76283444  0.44711888     0.13300
H374        H  0.33622900  0.69929300  0.35989983     0.09800
H375        H  0.30502614  0.75462980  0.33478065     0.10900
H376        H  0.22254035  0.68952575  0.35893236     0.16700
C377        C  0.49388156  0.73066110  0.37490724    -0.01500
C378        C  0.52081296  0.73855161  0.38698322     0.07100
C379        C  0.52190356  0.74818495  0.41590161    -0.07500
C380        C  0.49653871  0.74992915  0.43287078     0.04500
C381        C  0.46933732  0.74168121  0.42085514    -0.14700
C382        C  0.46863896  0.73243073  0.39164435    -0.08000
C383        C  0.54791690  0.73552498  0.36968368     0.05500
C384        C  0.55306095  0.75478886  0.34656999    -0.09100
C385        C  0.57553862  0.74968753  0.32660613     0.00500
C386        C  0.59334269  0.72472159  0.32958521     0.00300
C387        C  0.58886403  0.70624162  0.35359509    -0.12700
C388        C  0.56647667  0.71145939  0.37353745     0.00800
C389        C  0.57831017  0.76922057  0.30217508     0.40100
C390        C  0.56185652  0.69092421  0.39684949     0.36700
C391        C  0.49178902  0.71958771  0.34558942     0.36500
C392        C  0.49925428  0.76093350  0.46212620     0.37200
N393        N  0.58041415  0.78485951  0.28255791    -0.43600
N394        N  0.55805264  0.67449999  0.41554293    -0.44000
N395        N  0.50162165  0.76990948  0.48551319    -0.41400
N396        N  0.49023910  0.71059835  0.32214561    -0.42800
H397        H  0.44832005  0.72593970  0.38173092     0.13300
H398        H  0.54265502  0.75429928  0.42522963     0.09800
H399        H  0.53858210  0.77319862  0.34338665     0.10900
H400        H  0.60244626  0.68710707  0.35639221     0.16700
C401        C  0.56441167  0.30851262  0.23278498    -0.01500
C402        C  0.55239257  0.31140622  0.20475815     0.07100
C403        C  0.56014004  0.29137449  0.18313414    -0.07500
C404        C  0.57927650  0.26829833  0.18919157     0.04500
C405        C  0.59123264  0.26513078  0.21744424    -0.14700
C406        C  0.58346171  0.28555941  0.23890259    -0.08000
C407        C  0.53212431  0.33561409  0.19774245     0.05500
C408        C  0.54256170  0.35961515  0.18223461    -0.09100
C409        C  0.52520861  0.38432442  0.17803301     0.00500
C410        C  0.49676196  0.38546344  0.18984435     0.00300
C411        C  0.48580057  0.36059694  0.20383199    -0.12700
C412        C  0.50320799  0.33579834  0.20779625     0.00800
C413        C  0.53718510  0.40804990  0.16128026     0.40100
C414        C  0.49120923  0.31085021  0.22256688     0.36700
C415        C  0.55796663  0.32925246  0.25546868     0.36500
C416        C  0.58540931  0.24783051  0.16622347     0.37200
N417        N  0.54673477  0.42705748  0.14783454    -0.43600
N418        N  0.48171940  0.29070297  0.23427095    -0.44000
N419        N  0.59021607  0.23141657  0.14777419    -0.41400
N420        N  0.55285342  0.34590649  0.27361737    -0.42800
H421        H  0.59260727  0.28389813  0.26060315     0.13300
H422        H  0.55094804  0.29363640  0.16150294     0.09800
H423        H  0.56463669  0.35930535  0.17399350     0.10900
H424        H  0.46404067  0.36091909  0.21275638     0.16700
C425        C  0.49011170  0.12712578  0.37519174    -0.01500
C426        C  0.51845883  0.12530048  0.38652086     0.07100
C427        C  0.52216766  0.11913851  0.41619755    -0.07500
C428        C  0.49813139  0.11481936  0.43460984     0.04500
C429        C  0.46946818  0.11727981  0.42343182    -0.14700
C430        C  0.46616052  0.12315802  0.39346070    -0.08000
C431        C  0.54422241  0.13135361  0.36785242     0.05500
C432        C  0.55889801  0.15777975  0.37132313    -0.09100
C433        C  0.58111008  0.16606108  0.35219329     0.00500
C434        C  0.58920528  0.14757191  0.32880185     0.00300
C435        C  0.57535749  0.12038949  0.32634212    -0.12700
C436        C  0.55298932  0.11228942  0.34547857     0.00800
C437        C  0.59515766  0.19366694  0.35737280     0.40100
C438        C  0.53896316  0.08450698  0.34153041     0.36700
C439        C  0.48500038  0.13392505  0.34493820     0.36500
C440        C  0.50384006  0.10742465  0.46457590     0.37200
N441        N  0.60633354  0.21581569  0.36155946    -0.43600
N442        N  0.52761058  0.06228197  0.33840182    -0.44000
N443        N  0.50860302  0.10131418  0.48853055    -0.41400
N444        N  0.48090982  0.13929512  0.32068708    -0.42800
H445        H  0.44466117  0.12520307  0.38402369     0.13300
H446        H  0.54399119  0.11764829  0.42499611     0.09800
H447        H  0.55238008  0.17242452  0.38865297     0.10900
H448        H  0.58133096  0.10575460  0.30883675     0.16700
C449        C  0.31819534  0.14330683  0.41838824    -0.01500
C450        C  0.31430016  0.12830529  0.39184372     0.07100
C451        C  0.33414348  0.10642032  0.38425360    -0.07500
C452        C  0.35829041  0.10035971  0.40181554     0.04500
C453        C  0.36314383  0.11652210  0.42750306    -0.14700
C454        C  0.34239806  0.13723472  0.43601771    -0.08000
C455        C  0.29111732  0.13658796  0.37066666     0.05500
C456        C  0.29148900  0.16464835  0.35873709    -0.09100
C457        C  0.27103077  0.17330552  0.33787437     0.00500
C458        C  0.24920863  0.15360384  0.32844223     0.00300
C459        C  0.24914691  0.12531942  0.34024174    -0.12700
C460        C  0.26980694  0.11673593  0.36108334     0.00800
C461        C  0.27385392  0.20227789  0.32597925     0.40100
C462        C  0.26842692  0.08760774  0.37273944     0.36700
C463        C  0.29785273  0.16531076  0.42772222     0.36500
C464        C  0.37773845  0.07731046  0.39306953     0.37200
N465        N  0.27622670  0.22548538  0.31648529    -0.43600
N466        N  0.26745415  0.06425222  0.38209944    -0.44000
N467        N  0.39325963  0.05874164  0.38618238    -0.41400
N468        N  0.28151861  0.18295354  0.43513425    -0.42800
H469        H  0.34580473  0.14968618  0.45576035     0.13300
H470        H  0.33124946  0.09462011  0.36402897     0.09800
H471        H  0.30827944  0.17980075  0.36545699     0.10900
H472        H  0.23269896  0.10987070  0.33342925     0.16700
C473        C  0.70126624  0.55978403  0.56999738    -0.01500
C474        C  0.71653954  0.55454550  0.59613665     0.07100
C475        C  0.73441319  0.52979927  0.59805000    -0.07500
C476        C  0.73786587  0.51093882  0.57420338     0.04500
C477        C  0.72334627  0.51682179  0.54772495    -0.14700
C478        C  0.70509278  0.54129861  0.54610753    -0.08000
C479        C  0.71395178  0.57465261  0.62155219     0.05500
C480        C  0.70140892  0.56458826  0.64746786    -0.09100
C481        C  0.69621305  0.58351702  0.67092134     0.00500
C482        C  0.70368293  0.61339541  0.66871086     0.00300
C483        C  0.71750743  0.62297015  0.64314298    -0.12700
C484        C  0.72281619  0.60399168  0.61987711     0.00800
C485        C  0.68180664  0.57180820  0.69621311     0.40100
C486        C  0.73739604  0.61516122  0.59442872     0.36700
C487        C  0.68087027  0.58354147  0.56739071     0.36500
C488        C  0.75737089  0.48650155  0.57708725     0.37200
N489        N  0.67024332  0.56226837  0.71641100    -0.43600
N490        N  0.74901355  0.62410586  0.57399700    -0.44000
N491        N  0.77302430  0.46691115  0.57935930    -0.41400
N492        N  0.66446563  0.60252049  0.56527352    -0.42800
H493        H  0.69334736  0.54581488  0.52611583     0.13300
H494        H  0.74608518  0.52547483  0.61811664     0.09800
H495        H  0.69473598  0.54199680  0.64901231     0.10900
H496        H  0.72394057  0.64558748  0.64109972     0.16700
C497        C  0.68894135  0.57909569  0.36587493    -0.01500
C498        C  0.71735985  0.56798153  0.36822983     0.07100
C499        C  0.73876990  0.57795866  0.34898568    -0.07500
C500        C  0.73227278  0.59886574  0.32762099     0.04500
C501        C  0.70369900  0.61023597  0.32526925    -0.14700
C502        C  0.68237460  0.59984390  0.34461616    -0.08000
C503        C  0.72509127  0.54730723  0.39191015     0.05500
C504        C  0.71243469  0.51952538  0.39234003    -0.09100
C505        C  0.71493446  0.50146139  0.41684633     0.00500
C506        C  0.73033537  0.51130814  0.44158482     0.00300
C507        C  0.74451936  0.53835940  0.44023934    -0.12700
C508        C  0.74208082  0.55628341  0.41574814     0.00800
C509        C  0.69961957  0.47407349  0.41673317     0.40100
C510        C  0.75560748  0.58460262  0.41636205     0.36700
C511        C  0.66633753  0.57028765  0.38578334     0.36500
C512        C  0.75536403  0.60789482  0.30844649     0.37200
N513        N  0.68728588  0.45214921  0.41656305    -0.43600
N514        N  0.76642929  0.60730668  0.41680335    -0.44000
N515        N  0.77390352  0.61512050  0.29309213    -0.41400
N516        N  0.64831262  0.56318066  0.40178980    -0.42800
H517        H  0.66037551  0.60826566  0.34355506     0.13300
H518        H  0.76071642  0.56949810  0.35083580     0.09800
H519        H  0.69936085  0.51253359  0.37396107     0.10900
H520        H  0.75676741  0.54605264  0.45889938     0.16700
C521        C  0.57142257  0.74245497  0.62573123    -0.01500
C522        C  0.54415761  0.72899127  0.62948585     0.07100
C523        C  0.54036827  0.70918140  0.65231615    -0.07500
C524        C  0.56273928  0.70340917  0.67198402     0.04500
C525        C  0.58976212  0.71772803  0.66910451    -0.14700
C526        C  0.59402063  0.73668200  0.64547428    -0.08000
C527        C  0.51900557  0.73482230  0.61009033     0.05500
C528        C  0.52008152  0.72589860  0.58095306    -0.09100
C529        C  0.49530665  0.72722472  0.56319070     0.00500
C530        C  0.46884665  0.73807382  0.57458118     0.00300
C531        C  0.46830480  0.74795245  0.60351367    -0.12700
C532        C  0.49288965  0.74628415  0.62123606     0.00800
C533        C  0.49732417  0.71526028  0.53425850     0.40100
C534        C  0.49059581  0.75597578  0.65102452     0.36700
C535        C  0.57637526  0.76284501  0.60237854     0.36500
C536        C  0.55762678  0.68174699  0.69417906     0.37200
N537        N  0.49907215  0.70541966  0.51117123    -0.43600
N538        N  0.48864868  0.76358087  0.67492462    -0.44000
N539        N  0.55350690  0.66426488  0.71181558    -0.41400
N540        N  0.58032524  0.77916699  0.58362502    -0.42800
H541        H  0.61476523  0.74751569  0.64283266     0.13300
H542        H  0.51969894  0.69810913  0.65474240     0.09800
H543        H  0.54000534  0.71657086  0.57247035     0.10900
H544        H  0.44837566  0.75665349  0.61262131     0.16700
C545        C  0.51037870  0.53898463  0.78418419    -0.01500
C546        C  0.53218785  0.54537331  0.80491230     0.07100
C547        C  0.53435087  0.52776082  0.82985374    -0.07500
C548        C  0.51634065  0.50337833  0.83350580     0.12500
C549        C  0.49537157  0.49641905  0.81221613    -0.14700
C550        C  0.49208364  0.51484425  0.78809139    -0.08000
C551        C  0.55368654  0.56939274  0.80018372     0.05500
C552        C  0.54388301  0.59811554  0.79661109    -0.09100
C553        C  0.56314467  0.62081825  0.78968121     0.00500
C554        C  0.59328297  0.61505306  0.78615209     0.00300
C555        C  0.60305097  0.58637346  0.79105304    -0.12700
C556        C  0.58375175  0.56379559  0.79794613     0.00800
C557        C  0.55090424  0.64949002  0.78579137     0.40100
C558        C  0.59531648  0.53477343  0.80136567     0.36700
C559        C  0.50747913  0.55579213  0.75780426     0.36500
C560        C  0.51959398  0.48589036  0.85940742     0.37200
N561        N  0.54082056  0.67237156  0.78274785    -0.43600
N562        N  0.60463042  0.51154533  0.80418846    -0.44000
N563        N  0.52207100  0.47187205  0.88017994    -0.41400
N564        N  0.50521480  0.56927290  0.73665896    -0.42800
H565        H  0.47625857  0.50953927  0.77157651     0.13300
H566        H  0.55051077  0.53271654  0.84615720     0.09800
H567        H  0.52087414  0.60274077  0.79876391     0.10900
H568        H  0.62593395  0.58122368  0.78884187     0.16700
C569        C  0.29409453  0.74093749  0.66432782    -0.01500
C570        C  0.28955705  0.73867826  0.63411029     0.07100
C571        C  0.26150825  0.73294549  0.62377803    -0.07500
C572        C  0.23847487  0.72751983  0.64303445     0.04500
C573        C  0.24346029  0.72741956  0.67355264    -0.14700
C574        C  0.27128998  0.73527150  0.68363011    -0.08000
C575        C  0.31439002  0.73852192  0.61340529     0.05500
C576        C  0.33467538  0.71584707  0.61558508    -0.09100
C577        C  0.35875189  0.71456705  0.59713794     0.00500
C578        C  0.36271504  0.73607850  0.57555188     0.00300
C579        C  0.34195687  0.75831369  0.57268892    -0.12700
C580        C  0.31803860  0.75985486  0.59160765     0.00800
C581        C  0.37893561  0.69074084  0.60067613     0.40100
C582        C  0.29852410  0.78433058  0.58934528     0.36700
C583        C  0.32214113  0.74873546  0.67603293     0.36500
C584        C  0.21043216  0.72119847  0.63050891     0.37200
N585        N  0.39501669  0.67159365  0.60362722    -0.43600
N586        N  0.28307460  0.80413272  0.58761181    -0.44000
N587        N  0.18802554  0.71626670  0.62022044    -0.41400
N588        N  0.34457348  0.75511367  0.68541662    -0.42800
H589        H  0.27562311  0.73631585  0.70680994     0.13300
H590        H  0.25786592  0.73144704  0.60048597     0.09800
H591        H  0.33175774  0.69912903  0.63202093     0.10900
H592        H  0.34514177  0.77522958  0.55652872     0.16700
C593        C  0.10660354  0.59451789  0.37243543    -0.01500
C594        C  0.12093576  0.56739466  0.37386309     0.07100
C595        C  0.13960321  0.55940478  0.35122498    -0.07500
C596        C  0.14524580  0.57845150  0.32804246     0.04500
C597        C  0.13182582  0.60620717  0.32704221    -0.14700
C598        C  0.11221302  0.61365839  0.34927420    -0.08000
C599        C  0.11961610  0.54867433  0.40031305     0.05500
C600        C  0.10409130  0.52240984  0.39988304    -0.09100
C601        C  0.10318409  0.50419880  0.42451442     0.00500
C602        C  0.11773843  0.51248724  0.45041408     0.00300
C603        C  0.13372760  0.53857607  0.45032828    -0.12700
C604        C  0.13508726  0.55630536  0.42560970     0.00800
C605        C  0.08676832  0.47753520  0.42260376     0.40100
C606        C  0.15347864  0.58172341  0.42627145     0.36700
C607        C  0.08634428  0.60326673  0.39471358     0.36500
C608        C  0.16688985  0.56978381  0.30713614     0.37200
N609        N  0.07376232  0.45606656  0.42095422    -0.43600
N610        N  0.16844211  0.60192645  0.42659148    -0.44000
N611        N  0.18456344  0.56258780  0.29079935    -0.41400
N612        N  0.06999489  0.61025744  0.41248272    -0.42800
H613        H  0.10152307  0.63470501  0.34878514     0.13300
H614        H  0.15096386  0.53872988  0.35243766     0.09800
H615        H  0.09264075  0.51613860  0.38022462     0.10900
H616        H  0.14570235  0.54504750  0.46960648     0.16700
C617        C  0.14244993  0.55365693  0.58177214    -0.01500
C618        C  0.12768671  0.54618298  0.60754284     0.07100
C619        C  0.11110274  0.52061924  0.60832382    -0.07500
C620        C  0.10824533  0.50308284  0.58348663     0.04500
C621        C  0.12218362  0.51123905  0.55724453    -0.14700
C622        C  0.13953916  0.53634113  0.55701128    -0.08000
C623        C  0.12819927  0.56604436  0.63299192     0.05500
C624        C  0.11573242  0.59371532  0.62994938    -0.09100
C625        C  0.11940415  0.61500513  0.65133788     0.00500
C626        C  0.13590280  0.60874356  0.67655665     0.00300
C627        C  0.14656599  0.58026490  0.68050496    -0.12700
C628        C  0.14289232  0.55897670  0.65894668     0.00800
C629        C  0.10586441  0.64298810  0.64674867     0.40100
C630        C  0.15565569  0.53058554  0.66322524     0.36700
C631        C  0.16071902  0.57913598  0.58025496     0.36500
C632        C  0.08962158  0.47788813  0.58522182     0.37200
N633        N  0.09491993  0.66535563  0.64297962    -0.43600
N634        N  0.16582929  0.50779939  0.66664018    -0.44000
N635        N  0.07468159  0.45770485  0.58663650    -0.41400
N636        N  0.17530420  0.59958869  0.57916946    -0.42800
H637        H  0.15083952  0.54262892  0.53728145     0.13300
H638        H  0.09966323  0.51485258  0.62812644     0.09800
H639        H  0.10383803  0.59897613  0.61023904     0.10900
H640        H  0.15897164  0.57495230  0.69986189     0.16700
C641        C  0.56443401  0.29712048  0.81683362    -0.01500
C642        C  0.54653065  0.31004788  0.79556204     0.07100
C643        C  0.54735057  0.29927246  0.76708979    -0.07500
C644        C  0.56652842  0.27685471  0.75928633     0.04500
C645        C  0.58612151  0.26511684  0.78021661    -0.14700
C646        C  0.58405628  0.27511090  0.80907384    -0.08000
C647        C  0.52886703  0.33647686  0.80195047     0.05500
C648        C  0.54335309  0.36206648  0.80975531    -0.09100
C649        C  0.52825252  0.38812839  0.81431922     0.00500
C650        C  0.49761213  0.38923303  0.81050202     0.00300
C651        C  0.48309532  0.36310512  0.80354445    -0.12700
C652        C  0.49838321  0.33696640  0.79935072     0.00800
C653        C  0.54524296  0.41301185  0.82307278     0.40100
C654        C  0.48232732  0.31078811  0.79294657     0.36700
C655        C  0.56275610  0.30592250  0.84689299     0.36500
C656        C  0.56514393  0.26649834  0.72966915     0.37200
N657        N  0.55922577  0.43269597  0.83010639    -0.43600
N658        N  0.46947169  0.28974664  0.78799769    -0.44000
N659        N  0.56364038  0.25825757  0.70594341    -0.41400
N660        N  0.56118847  0.31285975  0.87101754    -0.42800
H661        H  0.59813241  0.26606798  0.82570505     0.13300
H662        H  0.53336080  0.30891225  0.75068996     0.09800
H663        H  0.56682451  0.36172854  0.81196980     0.10900
H664        H  0.45969774  0.36302261  0.80091283     0.16700
C665        C  0.52434071  0.12570792  0.58312936    -0.01500
C666        C  0.52473425  0.11952518  0.61325344     0.07100
C667        C  0.50006344  0.10701215  0.62592922    -0.07500
C668        C  0.47486841  0.10196867  0.60963420     0.04500
C669        C  0.47363487  0.11020202  0.57987448    -0.14700
C670        C  0.49898560  0.12104822  0.56678750    -0.08000
C671        C  0.54923637  0.12871969  0.63249737     0.05500
C672        C  0.55678412  0.15823053  0.63319636    -0.09100
C673        C  0.57800024  0.16872495  0.65231321     0.00500
C674        C  0.59235824  0.14944234  0.67180004     0.00300
C675        C  0.58493359  0.11971405  0.67076571    -0.12700
C676        C  0.56357444  0.10933165  0.65156639     0.00800
C677        C  0.58402651  0.19952356  0.65124958     0.40100
C678        C  0.55668971  0.07869988  0.65195673     0.36700
C679        C  0.54950677  0.13747167  0.56861529     0.36500
C680        C  0.45061925  0.08859358  0.62439526     0.37200
N681        N  0.58861014  0.22424438  0.65014041    -0.43600
N682        N  0.55102998  0.05418067  0.65243118    -0.44000
N683        N  0.43124498  0.07795064  0.63635736    -0.41400
N684        N  0.56966082  0.14698203  0.55701170    -0.42800
H685        H  0.49866276  0.12726720  0.54406339     0.13300
H686        H  0.50006851  0.10215257  0.64900771     0.09800
H687        H  0.54545762  0.17342150  0.61906284     0.10900
H688        H  0.59546872  0.10444215  0.68538079     0.16700
C689        C  0.68262042  0.30257335  0.36042553    -0.01500
C690        C  0.71051940  0.30432746  0.37281085     0.07100
C691        C  0.73266767  0.28641589  0.36201245    -0.07500
C692        C  0.72720888  0.26625059  0.33971056     0.04500
C693        C  0.69874537  0.26324250  0.32820472    -0.14700
C694        C  0.67692949  0.28216478  0.33852533    -0.08000
C695        C  0.71606630  0.32248740  0.39898937     0.05500
C696        C  0.71351404  0.30942313  0.42631805    -0.09100
C697        C  0.71701212  0.32552813  0.45192885     0.00500
C698        C  0.72330417  0.35584810  0.45057707     0.00300
C699        C  0.72610483  0.36872899  0.42285059    -0.12700
C700        C  0.72263895  0.35234245  0.39727370     0.00800
C701        C  0.71319352  0.30996324  0.47895247     0.40100
C702        C  0.72608880  0.36650848  0.36948707     0.36700
C703        C  0.65930534  0.32105161  0.37042582     0.36500
C704        C  0.75116851  0.24859423  0.32980469     0.37200
N705        N  0.71007379  0.29713735  0.50039237    -0.43600
N706        N  0.72897937  0.37782978  0.34719590    -0.44000
N707        N  0.77047642  0.23459612  0.32181025    -0.41400
N708        N  0.64068970  0.33596598  0.37840213    -0.42800
H709        H  0.65509119  0.28084242  0.32975587     0.13300
H710        H  0.75420882  0.28779321  0.37150964     0.09800
H711        H  0.70832050  0.28643625  0.42761497     0.10900
H712        H  0.73109670  0.39169428  0.42101442     0.16700
C713        C  0.71279026  0.35995496  0.60650309    -0.01500
C714        C  0.72521042  0.33197509  0.60973170     0.07100
C715        C  0.74267623  0.32098787  0.58727374    -0.07500
C716        C  0.74651509  0.33653613  0.56136505     0.04500
C717        C  0.73217767  0.36344280  0.55721801    -0.14700
C718        C  0.71634009  0.37537992  0.58041450    -0.08000
C719        C  0.71749992  0.31243153  0.63449199     0.05500
C720        C  0.68810565  0.30646604  0.63948286    -0.09100
C721        C  0.67940351  0.28633466  0.66052522     0.00500
C722        C  0.70050682  0.27029412  0.67646875     0.00300
C723        C  0.73003426  0.27703467  0.67207003    -0.12700
C724        C  0.73858854  0.29803550  0.65157581     0.00800
C725        C  0.64854240  0.28320844  0.66514696     0.40100
C726        C  0.76907268  0.30474882  0.64875356     0.36700
C727        C  0.69579452  0.37302143  0.62941634     0.36500
C728        C  0.76550434  0.32446799  0.53949916     0.37200
N729        N  0.62378850  0.28111955  0.66890202    -0.43600
N730        N  0.79349092  0.31023240  0.64654133    -0.44000
N731        N  0.78082671  0.31489302  0.52201613    -0.41400
N732        N  0.68208667  0.38339876  0.64776412    -0.42800
H733        H  0.70560982  0.39623288  0.57773246     0.13300
H734        H  0.75247676  0.29963361  0.58950205     0.09800
H735        H  0.67169320  0.31734307  0.62644089     0.10900
H736        H  0.74661734  0.26575408  0.68450189     0.16700
C737        C  0.31533872  0.11580968  0.58749076    -0.01500
C738        C  0.31650906  0.12964478  0.61479664     0.07100
C739        C  0.34326470  0.13932973  0.62543275    -0.07500
C740        C  0.36875265  0.13569065  0.60938193     0.04500
C741        C  0.36787752  0.12181705  0.58180916    -0.14700
C742        C  0.34088467  0.11214540  0.57115879    -0.08000
C743        C  0.29019378  0.13585950  0.63240184     0.05500
C744        C  0.27764529  0.11369819  0.64915306    -0.09100
C745        C  0.25570920  0.11993116  0.66948129     0.00500
C746        C  0.24587981  0.14898778  0.67322345     0.00300
C747        C  0.25771810  0.17075994  0.65515421    -0.12700
C748        C  0.27971753  0.16448560  0.63516830     0.00800
C749        C  0.24478417  0.09618183  0.68684962     0.40100
C750        C  0.29197160  0.18798570  0.61830562     0.36700
C751        C  0.28815099  0.10561409  0.57571365     0.36500
C752        C  0.39513045  0.14759692  0.62154741     0.37200
N753        N  0.23611767  0.07708234  0.70075686    -0.43600
N754        N  0.30197700  0.20673264  0.60483722    -0.44000
N755        N  0.41617085  0.15715787  0.63145012    -0.41400
N756        N  0.26634489  0.09739523  0.56629480    -0.42800
H757        H  0.33974989  0.10143823  0.55019862     0.13300
H758        H  0.34412238  0.15023771  0.64632632     0.09800
H759        H  0.28584124  0.09168704  0.64717293     0.10900
H760        H  0.25042040  0.19308976  0.65711387     0.16700
C761        C  0.10255182  0.30979705  0.42872551    -0.01500
C762        C  0.11416205  0.32112397  0.40280006     0.07100
C763        C  0.12155878  0.35061869  0.40133647    -0.07500
C764        C  0.11880674  0.36870919  0.42563715     0.04500
C765        C  0.10766712  0.35734770  0.45208237    -0.14700
C766        C  0.09913636  0.32791692  0.45290704    -0.08000
C767        C  0.12156172  0.30196537  0.37800904     0.05500
C768        C  0.09937148  0.28916582  0.36158424    -0.09100
C769        C  0.10583254  0.27017210  0.33862938     0.00500
C770        C  0.13521269  0.26348792  0.33197916     0.00300
C771        C  0.15727561  0.27694663  0.34838757    -0.12700
C772        C  0.15071489  0.29594530  0.37112133     0.00800
C773        C  0.08176655  0.25814970  0.32248471     0.40100
C774        C  0.17428808  0.30837085  0.38772074     0.36700
C775        C  0.09570208  0.27926828  0.43155929     0.36500
C776        C  0.12962600  0.39806270  0.42299720     0.37200
N777        N  0.06241104  0.24862299  0.30956009    -0.43600
N778        N  0.19306321  0.31842397  0.40108568    -0.44000
N779        N  0.13860489  0.42145848  0.42069741    -0.41400
N780        N  0.09039843  0.25476840  0.43383667    -0.42800
H781        H  0.09052091  0.31865219  0.47282020     0.13300
H782        H  0.13079389  0.35921885  0.38137801     0.09800
H783        H  0.07689378  0.29400761  0.36681841     0.10900
H784        H  0.17993586  0.27235647  0.34382857     0.16700
C785        C  0.09775989  0.31269286  0.58388954    -0.01500
C786        C  0.11198171  0.32329862  0.60880141     0.07100
C787        C  0.12169666  0.35215911  0.60925322    -0.07500
C788        C  0.11851550  0.37021843  0.58484662     0.04500
C789        C  0.10572189  0.35912960  0.55904741    -0.14700
C790        C  0.09477246  0.33051925  0.55936655    -0.08000
C791        C  0.12034435  0.30347764  0.63285373     0.05500
C792        C  0.14877116  0.29277517  0.63326115    -0.09100
C793        C  0.15763016  0.27238099  0.65403226     0.00500
C794        C  0.13779418  0.26256996  0.67556493     0.00300
C795        C  0.10926393  0.27368972  0.67517413    -0.12700
C796        C  0.10044134  0.29387522  0.65398948     0.00800
C797        C  0.18685735  0.26115237  0.65157763     0.40100
C798        C  0.07089541  0.30435631  0.65418279     0.36700
C799        C  0.08736085  0.28309368  0.58257789     0.36500
C800        C  0.13019892  0.39929544  0.58663537     0.37200
N801        N  0.21024067  0.25214297  0.64943518    -0.43600
N802        N  0.04719163  0.31273851  0.65425326    -0.44000
N803        N  0.13960023  0.42257923  0.58825274    -0.41400
N804        N  0.07903693  0.25936588  0.58170009    -0.42800
H805        H  0.08448325  0.32166229  0.54006333     0.13300
H806        H  0.13278257  0.36026881  0.62845758     0.09800
H807        H  0.16394977  0.29986463  0.61666200     0.10900
H808        H  0.09373226  0.26658403  0.69139510     0.16700
C809        C  0.28039684  0.30345916  0.23344530    -0.01500
C810        C  0.28492480  0.31211192  0.20441161     0.07100
C811        C  0.26977540  0.29782349  0.18212688    -0.07500
C812        C  0.24976811  0.27567288  0.18840618     0.04500
C813        C  0.24498369  0.26705709  0.21767023    -0.14700
C814        C  0.26091093  0.28106623  0.23975552    -0.08000
C815        C  0.30424529  0.33706374  0.19734473     0.05500
C816        C  0.33374023  0.33561067  0.20480602    -0.09100
C817        C  0.35192147  0.35988660  0.20185052     0.00500
C818        C  0.34064414  0.38645293  0.19079027     0.00300
C819        C  0.31123455  0.38728933  0.18226262    -0.12700
C820        C  0.29312454  0.36305066  0.18547278     0.00800
C821        C  0.38148273  0.35693904  0.21187470     0.40100
C822        C  0.26285268  0.36579347  0.17766943     0.36700
C823        C  0.29436369  0.31825833  0.25735807     0.36500
C824        C  0.23409133  0.26298722  0.16434799     0.37200
N825        N  0.40509145  0.35426778  0.22010061    -0.43600
N826        N  0.23859116  0.36784969  0.17140068    -0.44000
N827        N  0.22145263  0.25297630  0.14503134    -0.41400
N828        N  0.30545938  0.33020640  0.27650983    -0.42800
H829        H  0.25772899  0.27505543  0.26234617     0.13300
H830        H  0.27318949  0.30445597  0.15973652     0.09800
H831        H  0.34237392  0.31558683  0.21392054     0.10900
H832        H  0.30202843  0.40718624  0.17348797     0.16700
C833        C  0.29999808  0.51967166  0.16783722    -0.01500
C834        C  0.30576402  0.54268777  0.18730392     0.07100
C835        C  0.33131623  0.54171472  0.20402569    -0.07500
C836        C  0.34998526  0.51751913  0.20288944     0.04500
C837        C  0.34277320  0.49336599  0.18526621    -0.14700
C838        C  0.31811658  0.49516282  0.16732889    -0.08000
C839        C  0.28351372  0.56558181  0.19335338     0.05500
C840        C  0.25606961  0.55664191  0.20298010    -0.09100
C841        C  0.23451918  0.57677448  0.21039870     0.00500
C842        C  0.24044555  0.60706601  0.20932245     0.00300
C843        C  0.26790495  0.61600405  0.19907759    -0.12700
C844        C  0.28920104  0.59563081  0.19087815     0.00800
C845        C  0.20671684  0.56522326  0.21911992     0.40100
C846        C  0.31637350  0.60603543  0.17925157     0.36700
C847        C  0.27546215  0.52073861  0.14827601     0.36500
C848        C  0.37529208  0.51728561  0.22144611     0.37200
N849        N  0.18440047  0.55572882  0.22567658    -0.43600
N850        N  0.33807001  0.61439441  0.16973146    -0.44000
N851        N  0.39565265  0.51711179  0.23622233    -0.41400
N852        N  0.25585996  0.52181049  0.13254181    -0.42800
H853        H  0.31275726  0.47713907  0.15309304     0.13300
H854        H  0.33598200  0.55927310  0.21905739     0.09800
H855        H  0.25150082  0.53356930  0.20498189     0.10900
H856        H  0.27282325  0.63900805  0.19737138     0.16700
C857        C  0.29358646  0.29090627  0.76633849    -0.01500
C858        C  0.29277171  0.30844805  0.79138244     0.07100
C859        C  0.27207022  0.30260265  0.81296902    -0.07500
C860        C  0.25149670  0.28033410  0.80936725     0.04500
C861        C  0.25155474  0.26333740  0.78367483    -0.14700
C862        C  0.27327718  0.26858584  0.76276215    -0.08000
C863        C  0.31127627  0.33479195  0.79387685     0.05500
C864        C  0.30466191  0.35877769  0.77628434    -0.09100
C865        C  0.32087388  0.38442400  0.77801161     0.00500
C866        C  0.34416515  0.38661835  0.79801546     0.00300
C867        C  0.35142735  0.36215682  0.81495934    -0.12700
C868        C  0.33513395  0.33635817  0.81304275     0.00800
C869        C  0.31378326  0.40766061  0.75805802     0.40100
C870        C  0.34339011  0.31162258  0.83055064     0.36700
C871        C  0.31474606  0.29584987  0.74371892     0.36500
C872        C  0.22969492  0.27669689  0.83159590     0.37200
N873        N  0.30810628  0.42605385  0.74181136    -0.43600
N874        N  0.34996913  0.29165021  0.84441968    -0.44000
N875        N  0.21217730  0.27383636  0.84939190    -0.41400
N876        N  0.33167977  0.29986949  0.72558820    -0.42800
H877        H  0.27409479  0.25558733  0.74309678     0.13300
H878        H  0.27125998  0.31627772  0.83217657     0.09800
H879        H  0.28668650  0.35740266  0.76107587     0.10900
H880        H  0.36940496  0.36339666  0.83014909     0.16700
C881        C  0.29590643  0.51684386  0.78787275    -0.01500
C882        C  0.30461601  0.54321001  0.80085621     0.07100
C883        C  0.33153740  0.54437951  0.81516798    -0.07500
C884        C  0.34971919  0.51982499  0.81670917     0.04500
C885        C  0.34081247  0.49318333  0.80402826    -0.14700
C886        C  0.31375209  0.49228194  0.78977438    -0.08000
C887        C  0.28579845  0.56959467  0.79931238     0.05500
C888        C  0.25809161  0.56875662  0.81195016    -0.09100
C889        C  0.23827602  0.59155646  0.80783675     0.00500
C890        C  0.24588165  0.61568878  0.79028521     0.00300
C891        C  0.27438889  0.61748184  0.77951155    -0.12700
C892        C  0.29432358  0.59477553  0.78397062     0.00800
C893        C  0.21049166  0.58982971  0.82228305     0.40100
C894        C  0.32292439  0.59717351  0.77140536     0.36700
C895        C  0.26913358  0.51464931  0.77160162     0.36500
C896        C  0.37692607  0.52260748  0.83204484     0.37200
N897        N  0.18833537  0.58858945  0.83406928    -0.43600
N898        N  0.34594796  0.59908768  0.76154012    -0.44000
N899        N  0.39876384  0.52498273  0.84429043    -0.41400
N900        N  0.24775695  0.51285902  0.75846915    -0.42800
H901        H  0.30649168  0.47229624  0.77957833     0.13300
H902        H  0.33832821  0.56460360  0.82529062     0.09800
H903        H  0.25172400  0.54986349  0.82461086     0.10900
H904        H  0.28073443  0.63601834  0.76634521     0.16700
C905        C  0.79769175  0.21560971  0.16581521    -0.01500
C906        C  0.79227978  0.22505817  0.13715643     0.07100
C907        C  0.76353800  0.22994230  0.12829890    -0.07500
C908        C  0.74025943  0.22580645  0.14760729     0.04500
C909        C  0.74558207  0.21621182  0.17648333    -0.14700
C910        C  0.77457658  0.21141360  0.18508869    -0.08000
C911        C  0.81649831  0.22972002  0.11626262     0.05500
C912        C  0.81998791  0.21045732  0.09286368    -0.09100
C913        C  0.84431884  0.21229582  0.07458793     0.00500
C914        C  0.86572837  0.23369314  0.07974238     0.00300
C915        C  0.86164993  0.25354499  0.10256955    -0.12700
C916        C  0.83714618  0.25196114  0.12051442     0.00800
C917        C  0.84776429  0.19078337  0.05200864     0.40100
C918        C  0.83356716  0.27335867  0.14319591     0.36700
C919        C  0.82682380  0.20939037  0.17575069     0.36500
C920        C  0.71137276  0.23224879  0.13719281     0.37200
N921        N  0.85061208  0.17347451  0.03398086    -0.43600
N922        N  0.83056596  0.29050868  0.16135288    -0.44000
N923        N  0.68825140  0.23752319  0.12880443    -0.41400
N924        N  0.85019440  0.20449750  0.18365158    -0.42800
H925        H  0.77934602  0.20382879  0.20688703     0.13300
H926        H  0.75932191  0.23729170  0.10628900     0.09800
H927        H  0.80416971  0.19328800  0.08951467     0.10900
H928        H  0.87778112  0.27030066  0.10648755     0.16700
C929        C  0.99584788  0.25158651  0.12570215    -0.01500
C930        C  0.02133629  0.23718950  0.11682359     0.07100
C931        C  0.02249591  0.22476437  0.08901994    -0.07500
C932        C  0.99820853  0.22532329  0.07053745     0.04500
C933        C  0.97211952  0.23879607  0.07985119    -0.14700
C934        C  0.97166409  0.25237570  0.10727592    -0.08000
C935        C  0.04546956  0.23186974  0.13759639     0.05500
C936        C  0.04063078  0.21247379  0.16058198    -0.09100
C937        C  0.06240209  0.20643125  0.18089646     0.00500
C938        C  0.08975063  0.22026718  0.17863942     0.00300
C939        C  0.09476528  0.23938015  0.15527817    -0.12700
C940        C  0.07285210  0.24526009  0.13480989     0.00800
C941        C  0.05654424  0.18466910  0.20282434     0.40100
C942        C  0.07869906  0.26536117  0.11142685     0.36700
C943        C  0.99388078  0.26513857  0.15395870     0.36500
C944        C  0.00018646  0.20997831  0.04324202     0.37200
N945        N  0.05195736  0.16710490  0.22027093    -0.43600
N946        N  0.08333813  0.28146445  0.09264603    -0.44000
N947        N  0.00188457  0.19751665  0.02145291    -0.41400
N948        N  0.99241738  0.27592446  0.17663789    -0.42800
H949        H  0.95204598  0.26315202  0.11471980     0.13300
H950        H  0.04202524  0.21334496  0.08230180     0.09800
H951        H  0.01974773  0.20167484  0.16239891     0.10900
H952        H  0.11573220  0.24991335  0.15315079     0.16700
C953        C  0.84263499  0.64424290  0.87191196    -0.01500
C954        C  0.81472245  0.64469170  0.88421875     0.07100
C955        C  0.81150592  0.64025283  0.91417774    -0.07500
C956        C  0.83576299  0.63516117  0.93200835     0.04500
C957        C  0.86405940  0.63466995  0.91969863    -0.14700
C958        C  0.86681870  0.63926699  0.88951385    -0.08000
C959        C  0.78884033  0.64959676  0.86572319     0.05500
C960        C  0.78035426  0.62767697  0.84636125    -0.09100
C961        C  0.75849609  0.63258195  0.82573571     0.00500
C962        C  0.74451546  0.66001314  0.82437036     0.00300
C963        C  0.75250230  0.68157049  0.84466879    -0.12700
C964        C  0.77448543  0.67661626  0.86512365     0.00800
C965        C  0.75223522  0.60956126  0.80536294     0.40100
C966        C  0.78294076  0.70001064  0.88429265     0.36700
C967        C  0.84704117  0.64951130  0.84125664     0.36500
C968        C  0.83055644  0.63023525  0.96256643     0.37200
N969        N  0.74734189  0.59107702  0.78901479    -0.43600
N970        N  0.78975937  0.71878538  0.89958947    -0.44000
N971        N  0.82612744  0.62627667  0.98701905    -0.41400
N972        N  0.85052652  0.65378483  0.81670807    -0.42800
H973        H  0.88806326  0.63939041  0.87935915     0.13300
H974        H  0.78990164  0.64057782  0.92360240     0.09800
H975        H  0.79165528  0.60693039  0.84672145     0.10900
H976        H  0.74199807  0.70271467  0.84421070     0.16700
C977        C  0.02101333  0.63970404  0.91704753    -0.01500
C978        C  0.02148987  0.63176608  0.88744270     0.07100
C979        C  0.99695357  0.61869984  0.87519911    -0.07500
C980        C  0.97148729  0.61500011  0.89140548     0.04500
C981        C  0.97022493  0.62449860  0.92079500    -0.14700
C982        C  0.99557183  0.63598605  0.93344030    -0.08000
C983        C  0.04610364  0.63949623  0.86801938     0.05500
C984        C  0.06402506  0.61757101  0.85673256    -0.09100
C985        C  0.08627627  0.62414257  0.83688457     0.00500
C986        C  0.09093795  0.65337193  0.82799140     0.00300
C987        C  0.07276310  0.67515682  0.83957552    -0.12700
C988        C  0.05045934  0.66845639  0.85906356     0.00800
C989        C  0.10356859  0.60031971  0.82598089     0.40100
C990        C  0.03136051  0.69151590  0.86853890     0.36700
C991        C  0.04618764  0.65240011  0.93076186     0.36500
C992        C  0.94703044  0.60174165  0.87687615     0.37200
N993        N  0.11729091  0.58113901  0.81719658    -0.43600
N994        N  0.01590802  0.70991003  0.87601341    -0.44000
N995        N  0.92754077  0.59123121  0.86496009    -0.41400
N996        N  0.06642312  0.66255578  0.94168410    -0.42800
H997        H  0.99516746  0.64343253  0.95579290     0.13300
H998        H  0.99735041  0.61238250  0.85247087     0.09800
H999        H  0.06038907  0.59516501  0.86325763     0.10900
H1000       H  0.07542524  0.69764846  0.83290330     0.16700
C1001       C  0.00423718  0.83493804  0.30765591    -0.01500
C1002       C  0.03427712  0.83630769  0.30178071     0.07100
C1003       C  0.04721851  0.86352753  0.29775816    -0.07500
C1004       C  0.03096184  0.88921410  0.29937117     0.04500
C1005       C  0.00076405  0.88816623  0.30590669    -0.14700
C1006       C  0.98786565  0.86067389  0.30994191    -0.08000
C1007       C  0.05239297  0.80978844  0.29731684     0.05500
C1008       C  0.04623964  0.79167383  0.27360353    -0.09100
C1009       C  0.06445778  0.76831270  0.26652915     0.00500
C1010       C  0.08955406  0.76257747  0.28343805     0.00300
C1011       C  0.09513819  0.78012164  0.30782603    -0.12700
C1012       C  0.07700034  0.80371614  0.31468690     0.00800
C1013       C  0.05664199  0.75046802  0.24190274     0.40100
C1014       C  0.08424237  0.82159585  0.33944697     0.36700
C1015       C  0.98976654  0.80734606  0.31135093     0.36500
C1016       C  0.04598878  0.91593954  0.29253991     0.37200
N1017       N  0.05037134  0.73618255  0.22216568    -0.43600
N1018       N  0.09011244  0.83596927  0.35924191    -0.44000
N1019       N  0.05815047  0.93721636  0.28684514    -0.41400
N1020       N  0.97820461  0.78517632  0.31409595    -0.42800
H1021       H  0.96488803  0.85917066  0.31476820     0.13300
H1022       H  0.07011240  0.86463888  0.29235187     0.09800
H1023       H  0.02748905  0.79630318  0.26005257     0.10900
H1024       H  0.11428634  0.77604467  0.32097900     0.16700
C1025       C  0.00347495  0.04210702  0.29044645    -0.01500
C1026       C  0.03100275  0.04374258  0.30381861     0.07100
C1027       C  0.03960149  0.02177996  0.32311836    -0.07500
C1028       C  0.02218762  0.99735066  0.32769824     0.04500
C1029       C  0.99559409  0.99444054  0.31253237    -0.14700
C1030       C  0.98597203  0.01752046  0.29489125    -0.08000
C1031       C  0.05218643  0.06695422  0.29667665     0.05500
C1032       C  0.04695973  0.09559373  0.30564196    -0.09100
C1033       C  0.06730874  0.11763000  0.30026287     0.00500
C1034       C  0.09387719  0.11089274  0.28612902     0.00300
C1035       C  0.09877597  0.08211385  0.27705088    -0.12700
C1036       C  0.07812759  0.06037641  0.28181994     0.00800
C1037       C  0.06028848  0.14672012  0.30981550     0.40100
C1038       C  0.08352083  0.03165677  0.27027789     0.36700
C1039       C  0.99352468  0.06456591  0.27085973     0.36500
C1040       C  0.03230311  0.97554304  0.34797553     0.37200
N1041       N  0.05443736  0.17002052  0.31734351    -0.43600
N1042       N  0.08770071  0.00871157  0.26081951    -0.44000
N1043       N  0.04045539  0.95811059  0.36423153    -0.41400
N1044       N  0.98556027  0.08264438  0.25523059    -0.42800
H1045       H  0.96557356  0.01564974  0.28325883     0.13300
H1046       H  0.06045086  0.02337271  0.33399401     0.09800
H1047       H  0.02694935  0.10068891  0.31702345     0.10900
H1048       H  0.11852886  0.07663453  0.26541080     0.16700
C1049       C  0.83350736  0.83766370  0.67809946    -0.01500
C1050       C  0.80520665  0.83856596  0.68977461     0.07100
C1051       C  0.79423574  0.86505014  0.69994335    -0.07500
C1052       C  0.81084010  0.89047956  0.69886023     0.04500
C1053       C  0.83931171  0.88991243  0.68699524    -0.14700
C1054       C  0.85029481  0.86320654  0.67676717    -0.08000
C1055       C  0.78685712  0.81215110  0.69331828     0.05500
C1056       C  0.79331954  0.79261334  0.71582071    -0.09100
C1057       C  0.77408431  0.77011027  0.72307036     0.00500
C1058       C  0.74768490  0.76675762  0.70754749     0.00300
C1059       C  0.74205319  0.78542740  0.68396789    -0.12700
C1060       C  0.76123791  0.80811801  0.67695588     0.00800
C1061       C  0.78211627  0.75069702  0.74646023     0.40100
C1062       C  0.75401088  0.82743374  0.65325786     0.36700
C1063       C  0.84552033  0.81087018  0.66704516     0.36500
C1064       C  0.79833159  0.91639112  0.71150840     0.37200
N1065       N  0.78862354  0.73512979  0.76516699    -0.43600
N1066       N  0.74834686  0.84296596  0.63425725    -0.44000
N1067       N  0.78832376  0.93712950  0.72167292    -0.41400
N1068       N  0.85510752  0.78937889  0.65812625    -0.42800
H1069       H  0.87193917  0.86228344  0.66755160     0.13300
H1070       H  0.77266956  0.86569251  0.70942025     0.09800
H1071       H  0.81302685  0.79559936  0.72845445     0.10900
H1072       H  0.72201806  0.78308366  0.67174436     0.16700
C1073       C  0.83559815  0.04263078  0.71081439    -0.01500
C1074       C  0.80817755  0.04524908  0.69727785     0.07100
C1075       C  0.79981242  0.02434086  0.67677735    -0.07500
C1076       C  0.81731764  0.00012379  0.67097516     0.04500
C1077       C  0.84396266  0.99630496  0.68593338    -0.14700
C1078       C  0.85328500  0.01832813  0.70500383    -0.08000
C1079       C  0.78696612  0.06846492  0.70521793     0.05500
C1080       C  0.79234136  0.09746356  0.69739454    -0.09100
C1081       C  0.77188111  0.11946287  0.70313860     0.00500
C1082       C  0.74534103  0.11259466  0.71722506     0.00300
C1083       C  0.74027792  0.08343797  0.72514195    -0.12700
C1084       C  0.76065400  0.06156924  0.71928837     0.00800
C1085       C  0.77839939  0.14856955  0.69333075     0.40100
C1086       C  0.75421181  0.03214843  0.72826138     0.36700
C1087       C  0.84524897  0.06369851  0.73195706     0.36500
C1088       C  0.80719656  0.97944261  0.64962851     0.37200
N1089       N  0.78362821  0.17187173  0.68536493    -0.43600
N1090       N  0.74905453  0.00856340  0.73539130    -0.44000
N1091       N  0.79902652  0.96289616  0.63253340    -0.41400
N1092       N  0.85297535  0.08059974  0.74891031    -0.42800
H1093       H  0.87361972  0.01578754  0.71663650     0.13300
H1094       H  0.77905642  0.02657850  0.66582504     0.09800
H1095       H  0.81238174  0.10282328  0.68623199     0.10900
H1096       H  0.72035740  0.07759767  0.73626877     0.16700
C1097       C  0.21011130  0.10115442  0.88358928    -0.01500
C1098       C  0.22704029  0.07613135  0.87838830     0.07100
C1099       C  0.23709570  0.07064254  0.85010370    -0.07500
C1100       C  0.23024669  0.08956950  0.82704658     0.04500
C1101       C  0.21290534  0.11448843  0.83223528    -0.14700
C1102       C  0.20349923  0.12009949  0.86075674    -0.08000
C1103       C  0.23242388  0.05462800  0.90195929     0.05500
C1104       C  0.21778730  0.02789998  0.90102100    -0.09100
C1105       C  0.21811797  0.00894054  0.92494578     0.00500
C1106       C  0.23375883  0.01652416  0.95031935     0.00300
C1107       C  0.24956011  0.04269097  0.95056900    -0.12700
C1108       C  0.24902464  0.06167342  0.92675350     0.00800
C1109       C  0.20019013  0.98323260  0.92368585     0.40100
C1110       C  0.26491714  0.08867697  0.92863397     0.36700
C1111       C  0.19794453  0.10707552  0.91191323     0.36500
C1112       C  0.24174675  0.08317730  0.79856727     0.37200
N1113       N  0.18561119  0.96276934  0.92264184    -0.43600
N1114       N  0.27754871  0.11036141  0.93031986    -0.44000
N1115       N  0.25107343  0.07802054  0.77578606    -0.41400
N1116       N  0.18815845  0.11176154  0.93459618    -0.42800
H1117       H  0.18991199  0.13890303  0.86514732     0.13300
H1118       H  0.25011929  0.05137956  0.84601756     0.09800
H1119       H  0.20470771  0.02258062  0.88210922     0.10900
H1120       H  0.26187414  0.04870683  0.96978113     0.16700
C1121       C  0.24391039  0.05812048  0.08321265    -0.01500
C1122       C  0.22340120  0.05223078  0.10522974     0.07100
C1123       C  0.20629632  0.02700751  0.10308550    -0.07500
C1124       C  0.20869406  0.00832395  0.07905221     0.04500
C1125       C  0.22844268  0.01491589  0.05649959    -0.14700
C1126       C  0.24613234  0.03964290  0.05916870    -0.08000
C1127       C  0.21770285  0.07345116  0.12907540     0.05500
C1128       C  0.20923259  0.10178726  0.12164267    -0.09100
C1129       C  0.20301107  0.12256722  0.14294931     0.00500
C1130       C  0.20439525  0.11495610  0.17289536     0.00300
C1131       C  0.21306274  0.08645181  0.18024413    -0.12700
C1132       C  0.21990535  0.06590120  0.15872338     0.00800
C1133       C  0.19507776  0.15132339  0.13296207     0.40100
C1134       C  0.22994286  0.03747479  0.16756055     0.36700
C1135       C  0.26280165  0.08313939  0.08465851     0.36500
C1136       C  0.18921401  0.98382082  0.07712944     0.37200
N1137       N  0.18890954  0.17437146  0.12486301    -0.43600
N1138       N  0.23813399  0.01471451  0.17458190    -0.44000
N1139       N  0.17352214  0.96423336  0.07559475    -0.41400
N1140       N  0.27789734  0.10321935  0.08574204    -0.42800
H1141       H  0.26155867  0.04481754  0.04209580     0.13300
H1142       H  0.19017506  0.02252242  0.11969150     0.09800
H1143       H  0.20729627  0.10770183  0.09884884     0.10900
H1144       H  0.21466610  0.08011591  0.20292232     0.16700
C1145       C  0.60022298  0.79247760  0.85338892    -0.01500
C1146       C  0.62114708  0.81190897  0.86460302     0.07100
C1147       C  0.64843008  0.81333256  0.85119869    -0.07500
C1148       C  0.65561395  0.79488856  0.82803119     0.04500
C1149       C  0.63543923  0.77371141  0.81816642    -0.14700
C1150       C  0.60747245  0.77360565  0.83050083    -0.08000
C1151       C  0.61606455  0.82901156  0.89175072     0.05500
C1152       C  0.61071108  0.81392961  0.91768178    -0.09100
C1153       C  0.60813914  0.82853117  0.94432440     0.00500
C1154       C  0.61095861  0.85932630  0.94559257     0.00300
C1155       C  0.61579227  0.87437924  0.91926731    -0.12700
C1156       C  0.61845348  0.85957855  0.89267094     0.00800
C1157       C  0.60281945  0.81077783  0.96966111     0.40100
C1158       C  0.62344258  0.87626760  0.86654528     0.36700
C1159       C  0.57115660  0.79153131  0.86506006     0.36500
C1160       C  0.68389015  0.79845214  0.81492644     0.37200
N1161       N  0.59872413  0.79598577  0.98960922    -0.43600
N1162       N  0.62747750  0.88960417  0.84558490    -0.44000
N1163       N  0.70651013  0.80143303  0.80439625    -0.41400
N1164       N  0.54781654  0.79088016  0.87433031    -0.42800
H1165       H  0.59142050  0.75810695  0.82293151     0.13300
H1166       H  0.66455834  0.82842172  0.85943778     0.09800
H1167       H  0.60916919  0.79041532  0.91718864     0.10900
H1168       H  0.61800036  0.89782037  0.91936016     0.16700
C1169       C  0.63927924  0.78083465  0.12223847    -0.01500
C1170       C  0.62935430  0.80913663  0.12839516     0.07100
C1171       C  0.62513932  0.81739376  0.15744660    -0.07500
C1172       C  0.63003714  0.79759147  0.18027649     0.04500
C1173       C  0.63883205  0.76864019  0.17401464    -0.14700
C1174       C  0.64362923  0.76093854  0.14479277    -0.08000
C1175       C  0.62259498  0.82968844  0.10434510     0.05500
C1176       C  0.59934454  0.82313714  0.08573068    -0.09100
C1177       C  0.59454629  0.83928652  0.06035719     0.00500
C1178       C  0.61331864  0.86241257  0.05316232     0.00300
C1179       C  0.63553194  0.87010125  0.07266201    -0.12700
C1180       C  0.64034139  0.85388163  0.09810721     0.00800
C1181       C  0.56981969  0.83214542  0.04242851     0.40100
C1182       C  0.66442984  0.86151668  0.11668956     0.36700
C1183       C  0.64587746  0.77195518  0.09285395     0.36500
C1184       C  0.62558071  0.80767200  0.20965949     0.37200
N1185       N  0.54985644  0.82651069  0.02821272    -0.43600
N1186       N  0.68372525  0.86764269  0.13160941    -0.44000
N1187       N  0.62216159  0.81594509  0.23317101    -0.41400
N1188       N  0.65129616  0.76500659  0.06929826    -0.42800
H1189       H  0.65129684  0.73926967  0.13938166     0.13300
H1190       H  0.61776197  0.83930988  0.16225701     0.09800
H1191       H  0.58534777  0.80485876  0.09072136     0.10900
H1192       H  0.64986382  0.88803597  0.06741882     0.16700
C1193       C  0.83307600  0.25571159  0.89024307    -0.01500
C1194       C  0.81313710  0.23239722  0.89209105     0.07100
C1195       C  0.81841202  0.21013430  0.91242055    -0.07500
C1196       C  0.84351819  0.21030543  0.92982730     0.04500
C1197       C  0.86415946  0.23275912  0.92667592    -0.14700
C1198       C  0.85846994  0.25549344  0.90712510    -0.08000
C1199       C  0.78890527  0.22917731  0.87061065     0.05500
C1200       C  0.79597912  0.22797654  0.84102226    -0.09100
C1201       C  0.77471181  0.22392469  0.81964425     0.00500
C1202       C  0.74502258  0.22080891  0.82756664     0.00300
C1203       C  0.73795903  0.22219526  0.85739641    -0.12700
C1204       C  0.75951212  0.22616638  0.87879054     0.00800
C1205       C  0.78459763  0.22267836  0.78987265     0.40100
C1206       C  0.75091469  0.22725285  0.90894269     0.36700
C1207       C  0.82788131  0.28015353  0.87117923     0.36500
C1208       C  0.84857688  0.18624718  0.94938277     0.37200
N1209       N  0.79272339  0.22157957  0.76609249    -0.43600
N1210       N  0.74401310  0.22802004  0.93311942    -0.44000
N1211       N  0.85274228  0.16691765  0.96498024    -0.41400
N1212       N  0.82362743  0.29977062  0.85596316    -0.42800
H1213       H  0.87398602  0.27308971  0.90497043     0.13300
H1214       H  0.80350398  0.19195375  0.91385153     0.09800
H1215       H  0.81858171  0.22975433  0.83454796     0.10900
H1216       H  0.71554390  0.21970441  0.86419377     0.16700
C1217       C  0.99477760  0.21559769  0.87876355    -0.01500
C1218       C  0.02176246  0.22572754  0.88914827     0.07100
C1219       C  0.02332653  0.23698948  0.91747091    -0.07500
C1220       C  0.99852411  0.23868190  0.93523137     0.04500
C1221       C  0.97117196  0.22927449  0.92452443    -0.14700
C1222       C  0.96994412  0.21763300  0.89623314    -0.08000
C1223       C  0.04828642  0.22493922  0.87044885     0.05500
C1224       C  0.04867830  0.24116765  0.84455550    -0.09100
C1225       C  0.07190810  0.23897022  0.82495246     0.00500
C1226       C  0.09536836  0.22002770  0.83096071     0.00300
C1227       C  0.09578687  0.20514519  0.85770241    -0.12700
C1228       C  0.07255871  0.20744320  0.87736764     0.00800
C1229       C  0.07148162  0.25691262  0.79917084     0.40100
C1230       C  0.07346483  0.19055947  0.90383510     0.36700
C1231       C  0.99218843  0.20217447  0.85049730     0.36500
C1232       C  0.00190755  0.25094709  0.96391557     0.37200
N1233       N  0.07125252  0.27151833  0.77865973    -0.43600
N1234       N  0.07417227  0.17711428  0.92511244    -0.44000
N1235       N  0.00483897  0.26075471  0.98690089    -0.41400
N1236       N  0.99016478  0.19129362  0.82790520    -0.42800
H1237       H  0.94947248  0.20965835  0.88769911     0.13300
H1238       H  0.04402209  0.24479724  0.92563537     0.09800
H1239       H  0.03047715  0.25532415  0.83944525     0.10900
H1240       H  0.11370095  0.19059468  0.86269213     0.16700
C1241       C  0.81119451  0.65018262  0.07921552    -0.01500
C1242       C  0.80957274  0.63824693  0.10746426     0.07100
C1243       C  0.83243642  0.62084339  0.11755686    -0.07500
C1244       C  0.85755691  0.61685712  0.10105671     0.04500
C1245       C  0.86020048  0.63027652  0.07343753    -0.14700
C1246       C  0.83639768  0.64606966  0.06240753    -0.08000
C1247       C  0.78579445  0.64546662  0.12817297     0.05500
C1248       C  0.75731417  0.63591314  0.12297930    -0.09100
C1249       C  0.73515114  0.64086568  0.14343997     0.00500
C1250       C  0.74157153  0.65523022  0.16995651     0.00300
C1251       C  0.77009261  0.66496519  0.17471779    -0.12700
C1252       C  0.79191296  0.66054707  0.15415369     0.00800
C1253       C  0.70641448  0.63028483  0.13685123     0.40100
C1254       C  0.82037879  0.67238249  0.15995466     0.36700
C1255       C  0.78796807  0.66791295  0.06772883     0.36500
C1256       C  0.88033483  0.59901119  0.11333142     0.37200
N1257       N  0.68347107  0.62172834  0.13122280    -0.43600
N1258       N  0.84314084  0.68195980  0.16459722    -0.44000
N1259       N  0.89860930  0.58483424  0.12328069    -0.41400
N1260       N  0.76925608  0.68204644  0.05856516    -0.42800
H1261       H  0.83801724  0.65643175  0.04126609     0.13300
H1262       H  0.83102956  0.61112304  0.13904336     0.09800
H1263       H  0.75249351  0.62418105  0.10306146     0.10900
H1264       H  0.77537899  0.67676568  0.19447713     0.16700
C1265       C  0.98729104  0.63521574  0.12637899    -0.01500
C1266       C  0.01552430  0.63398681  0.11483772     0.07100
C1267       C  0.01915506  0.63053446  0.08477382    -0.07500
C1268       C  0.99513129  0.62886746  0.06602921     0.04500
C1269       C  0.96655432  0.63065166  0.07743247    -0.14700
C1270       C  0.96330187  0.63355013  0.10782888    -0.08000
C1271       C  0.04133921  0.63873590  0.13361080     0.05500
C1272       C  0.04899963  0.61787219  0.15456295    -0.09100
C1273       C  0.07177593  0.62298418  0.17423294     0.00500
C1274       C  0.08701222  0.64975576  0.17338836     0.00300
C1275       C  0.07968494  0.67012202  0.15167890    -0.12700
C1276       C  0.05727529  0.66478002  0.13188111     0.00800
C1277       C  0.07826752  0.60072552  0.19544549     0.40100
C1278       C  0.05032767  0.68681618  0.11055740     0.36700
C1279       C  0.98233674  0.63934243  0.15712017     0.36500
C1280       C  0.00089040  0.62559697  0.03538767     0.37200
N1281       N  0.08353481  0.58278540  0.21233053    -0.43600
N1282       N  0.04472715  0.70434071  0.09335455    -0.44000
N1283       N  0.00584742  0.62294883  0.01087496    -0.41400
N1284       N  0.97829749  0.64265131  0.18172861    -0.42800
H1285       H  0.94186777  0.63502952  0.11742756     0.13300
H1286       H  0.04094805  0.62966240  0.07587992     0.09800
H1287       H  0.03680750  0.59773298  0.15581907     0.10900
H1288       H  0.09130662  0.69057932  0.15027310     0.16700
C1289       C  0.03497385  0.85564447  0.71736003    -0.01500
C1290       C  0.02764298  0.83141491  0.70015658     0.07100
C1291       C  0.00344391  0.83309743  0.68166047    -0.07500
C1292       C  0.98662479  0.85865967  0.68008020     0.04500
C1293       C  0.99424236  0.88321421  0.69707529    -0.14700
C1294       C  0.01853971  0.88118774  0.71554496    -0.08000
C1295       C  0.04518723  0.80430295  0.70198578     0.05500
C1296       C  0.04053528  0.78545920  0.72546766    -0.09100
C1297       C  0.06021544  0.76305258  0.73175089     0.00500
C1298       C  0.08527772  0.75924095  0.71430929     0.00300
C1299       C  0.08868446  0.77677082  0.68949251    -0.12700
C1300       C  0.06901159  0.79933894  0.68338344     0.00800
C1301       C  0.05428960  0.74453813  0.75645227     0.40100
C1302       C  0.07464811  0.81825522  0.65898454     0.36700
C1303       C  0.05935246  0.85465865  0.73714126     0.36500
C1304       C  0.96238488  0.85934775  0.66017152     0.37200
N1305       N  0.04956483  0.72969975  0.77623373    -0.43600
N1306       N  0.07922951  0.83343822  0.63944165    -0.44000
N1307       N  0.94293949  0.85983710  0.64421027    -0.41400
N1308       N  0.07883903  0.85362432  0.75302118    -0.42800
H1309       H  0.02465212  0.89963883  0.72895152     0.13300
H1310       H  0.99772769  0.81440776  0.66841253     0.09800
H1311       H  0.02212326  0.78913134  0.73972984     0.10900
H1312       H  0.10765837  0.77398932  0.67579804     0.16700
C1313       C  0.04056694  0.01190922  0.72561209    -0.01500
C1314       C  0.03358548  0.03886058  0.71265243     0.07100
C1315       C  0.00789763  0.04123091  0.69634459    -0.07500
C1316       C  0.98964371  0.01708989  0.69220010     0.04500
C1317       C  0.99704028  0.98981694  0.70457748    -0.14700
C1318       C  0.02245768  0.98783347  0.72146971    -0.08000
C1319       C  0.05377813  0.06411222  0.71477199     0.05500
C1320       C  0.08182753  0.06136156  0.70318968    -0.09100
C1321       C  0.10259008  0.08329019  0.70688560     0.00500
C1322       C  0.09541982  0.10884205  0.72244321     0.00300
C1323       C  0.06680710  0.11226355  0.73262064    -0.12700
C1324       C  0.04607523  0.09018526  0.72900447     0.00800
C1325       C  0.13090087  0.07911358  0.69406242     0.40100
C1326       C  0.01751993  0.09424456  0.74127060     0.36700
C1327       C  0.06622328  0.00846478  0.74340083     0.36500
C1328       C  0.96442366  0.02065897  0.67386753     0.37200
N1329       N  0.15355335  0.07575876  0.68371127    -0.43600
N1330       N  0.99464482  0.09760118  0.75111456    -0.44000
N1331       N  0.94423883  0.02350719  0.65911437    -0.41400
N1332       N  0.08682969  0.00577526  0.75758387    -0.42800
H1333       H  0.02834364  0.96726452  0.73151979     0.13300
H1334       H  0.00251593  0.06185214  0.68611477     0.09800
H1335       H  0.08767858  0.04163225  0.69156709     0.10900
H1336       H  0.06088436  0.13179602  0.74450626     0.16700
C1337       C  0.79721787  0.77798433  0.29377309    -0.01500
C1338       C  0.78979782  0.80779076  0.29402182     0.07100
C1339       C  0.76112951  0.81585514  0.28771754    -0.07500
C1340       C  0.73972574  0.79511815  0.28208110     0.04500
C1341       C  0.74678731  0.76501411  0.28222613    -0.14700
C1342       C  0.77581868  0.75695899  0.28791669    -0.08000
C1343       C  0.81120382  0.83137549  0.30018378     0.05500
C1344       C  0.83616607  0.83416944  0.28282953    -0.09100
C1345       C  0.85437344  0.85850630  0.28540850     0.00500
C1346       C  0.84691843  0.88118243  0.30469955     0.00300
C1347       C  0.82276654  0.87779656  0.32291050    -0.12700
C1348       C  0.80539925  0.85290610  0.32133395     0.00800
C1349       C  0.87969210  0.86038390  0.26702723     0.40100
C1350       C  0.78173562  0.84989041  0.34170306     0.36700
C1351       C  0.82648384  0.76847931  0.29989947     0.36500
C1352       C  0.71093866  0.80589547  0.27560553     0.37200
N1353       N  0.90016879  0.86183855  0.25253649    -0.43600
N1354       N  0.76285587  0.84732146  0.35808718    -0.44000
N1355       N  0.68788530  0.81455586  0.27045912    -0.41400
N1356       N  0.85003852  0.76105828  0.30467008    -0.42800
H1357       H  0.78190205  0.73413504  0.28789067     0.13300
H1358       H  0.75540444  0.83879392  0.28702736     0.09800
H1359       H  0.84090138  0.81782847  0.26647344     0.10900
H1360       H  0.81731381  0.89483637  0.33831909     0.16700
C1361       C  0.75532148  0.05974619  0.30418239    -0.01500
C1362       C  0.78401280  0.06231153  0.29367119     0.07100
C1363       C  0.79227056  0.08812336  0.27969527    -0.07500
C1364       C  0.77222864  0.11071146  0.27510041     0.04500
C1365       C  0.74297076  0.10752242  0.28423966    -0.14700
C1366       C  0.73507918  0.08202972  0.29913268    -0.08000
C1367       C  0.80464007  0.03724159  0.29470509     0.05500
C1368       C  0.79702397  0.01165718  0.28002776    -0.09100
C1369       C  0.81475330  0.98693392  0.28108085     0.00500
C1370       C  0.84108242  0.98739286  0.29710154     0.00300
C1371       C  0.84937339  0.01351020  0.31071809    -0.12700
C1372       C  0.83137768  0.03826610  0.30973799     0.00800
C1373       C  0.80542975  0.96165633  0.26494006     0.40100
C1374       C  0.84018454  0.06401858  0.32533095     0.36700
C1375       C  0.74628336  0.03444263  0.32042953     0.36500
C1376       C  0.78203728  0.13613445  0.25947355     0.37200
N1377       N  0.79779366  0.94147249  0.25200552    -0.43600
N1378       N  0.84722737  0.08465552  0.33787459    -0.44000
N1379       N  0.78996261  0.15651385  0.24701191    -0.41400
N1380       N  0.73923882  0.01416845  0.33357059    -0.42800
H1381       H  0.71294292  0.07942054  0.30677175     0.13300
H1382       H  0.81424172  0.09022271  0.27142420     0.09800
H1383       H  0.77688512  0.01096650  0.26775912     0.10900
H1384       H  0.86947517  0.01432147  0.32300186     0.16700
C1385       C  0.59105448  0.05787615  0.91721188    -0.01500
C1386       C  0.61106259  0.05135317  0.89495641     0.07100
C1387       C  0.62711609  0.02539140  0.89658879    -0.07500
C1388       C  0.62442397  0.00670602  0.92062625     0.04500
C1389       C  0.60535215  0.01401143  0.94359453    -0.14700
C1390       C  0.58840283  0.03932353  0.94118109    -0.08000
C1391       C  0.61764084  0.07287564  0.87167142     0.05500
C1392       C  0.62915168  0.09988476  0.87981039    -0.09100
C1393       C  0.63608853  0.12102083  0.85905999     0.00500
C1394       C  0.63143748  0.11537452  0.82909571     0.00300
C1395       C  0.61993189  0.08815286  0.82101114    -0.12700
C1396       C  0.61315399  0.06696973  0.84193563     0.00800
C1397       C  0.64916343  0.14765051  0.86936267     0.40100
C1398       C  0.60139862  0.03948250  0.83241577     0.36700
C1399       C  0.57337417  0.08383159  0.91617277     0.36500
C1400       C  0.64307384  0.98146858  0.92213316     0.37200
N1401       N  0.65971417  0.16891426  0.87769837    -0.43600
N1402       N  0.59207310  0.01741765  0.82473523    -0.44000
N1403       N  0.65807129  0.96128199  0.92340779    -0.41400
N1404       N  0.55929887  0.10468794  0.91531833    -0.42800
H1405       H  0.57341986  0.04496827  0.95840086     0.13300
H1406       H  0.64275459  0.02040946  0.87971896     0.09800
H1407       H  0.63315962  0.10431469  0.90266443     0.10900
H1408       H  0.61626479  0.08329237  0.79820892     0.16700
C1409       C  0.60756789  0.06655981  0.15332422    -0.01500
C1410       C  0.61817005  0.07088913  0.12487853     0.07100
C1411       C  0.63530617  0.09536409  0.11910777    -0.07500
C1412       C  0.64228044  0.11528645  0.14107060     0.04500
C1413       C  0.63177160  0.11111652  0.16977647    -0.14700
C1414       C  0.61453975  0.08647594  0.17549773    -0.08000
C1415       C  0.61181153  0.05042765  0.10054389     0.05500
C1416       C  0.59366157  0.05974429  0.07787593    -0.09100
C1417       C  0.58941749  0.04257121  0.05303986     0.00500
C1418       C  0.60382529  0.01545120  0.05032767     0.00300
C1419       C  0.62101316  0.00561419  0.07366855    -0.12700
C1420       C  0.62523615  0.02288659  0.09850597     0.00800
C1421       C  0.56977309  0.05323509  0.03096170     0.40100
C1422       C  0.64467155  0.01260361  0.12091652     0.36700
C1423       C  0.58903535  0.04216181  0.15999105     0.36500
C1424       C  0.66145044  0.13901193  0.13363207     0.37200
N1425       N  0.55388645  0.06189773  0.01345467    -0.43600
N1426       N  0.66029436  0.00437592  0.13886099    -0.44000
N1427       N  0.67688749  0.15793458  0.12762615    -0.41400
N1428       N  0.57413538  0.02257852  0.16516218    -0.42800
H1429       H  0.60621365  0.08291532  0.19728216     0.13300
H1430       H  0.64368048  0.09868209  0.09727999     0.09800
H1431       H  0.58307701  0.08079442  0.07944088     0.10900
H1432       H  0.63229770  0.98495144  0.07197893     0.16700
C1433       C  0.20740122  0.85902999  0.89772977    -0.01500
C1434       C  0.21820991  0.83044052  0.89502183     0.07100
C1435       C  0.23490257  0.81862057  0.91757188    -0.07500
C1436       C  0.23991132  0.83423799  0.94320001     0.04500
C1437       C  0.22825542  0.86262089  0.94653531    -0.14700
C1438       C  0.21274503  0.87496083  0.92320676    -0.08000
C1439       C  0.21062825  0.81140278  0.87006528     0.05500
C1440       C  0.23167858  0.80498391  0.84899995    -0.09100
C1441       C  0.22608233  0.78477192  0.82676806     0.00500
C1442       C  0.19891894  0.77031177  0.82557755     0.00300
C1443       C  0.17776305  0.77744986  0.84651079    -0.12700
C1444       C  0.18341778  0.79757124  0.86859741     0.00800
C1445       C  0.24848508  0.77978724  0.80541733     0.40100
C1446       C  0.16137245  0.80273145  0.89030797     0.36700
C1447       C  0.19010464  0.87210358  0.87501864     0.36500
C1448       C  0.25701343  0.82036038  0.96563040     0.37200
N1449       N  0.26655555  0.77600385  0.78835999    -0.43600
N1450       N  0.14372658  0.80677953  0.90773953    -0.44000
N1451       N  0.27063018  0.80904472  0.98354435    -0.41400
N1452       N  0.17614817  0.88264662  0.85690470    -0.42800
H1453       H  0.20359682  0.89664290  0.92535364     0.13300
H1454       H  0.24330222  0.79662951  0.91548033     0.09800
H1455       H  0.25269388  0.81558723  0.85015970     0.10900
H1456       H  0.15682748  0.76664684  0.84621875     0.16700
C1457       C  0.21905063  0.80996426  0.07359384    -0.01500
C1458       C  0.21951238  0.82136186  0.10199039     0.07100
C1459       C  0.22449969  0.85126128  0.10581967    -0.07500
C1460       C  0.22839904  0.86989574  0.08184014     0.04500
C1461       C  0.22689987  0.85862534  0.05314299    -0.14700
C1462       C  0.22263453  0.82842465  0.04973728    -0.08000
C1463       C  0.21385540  0.80232315  0.12762799     0.05500
C1464       C  0.23278374  0.77909439  0.13358120    -0.09100
C1465       C  0.22640812  0.75862225  0.15530378     0.00500
C1466       C  0.20077056  0.76147092  0.17202738     0.00300
C1467       C  0.18227716  0.78526617  0.16649545    -0.12700
C1468       C  0.18853665  0.80550296  0.14454860     0.00800
C1469       C  0.24548038  0.73385544  0.15836192     0.40100
C1470       C  0.16789155  0.82847515  0.13875989     0.36700
C1471       C  0.21397637  0.77942664  0.06820425     0.36500
C1472       C  0.23426534  0.90018224  0.08765377     0.37200
N1473       N  0.26069780  0.71391515  0.16056028    -0.43600
N1474       N  0.15137213  0.84687378  0.13400452    -0.44000
N1475       N  0.23911706  0.92439839  0.09251588    -0.41400
N1476       N  0.21003873  0.75496168  0.06381003    -0.42800
H1477       H  0.22152540  0.81890251  0.02820733     0.13300
H1478       H  0.22527829  0.86006777  0.12768165     0.09800
H1479       H  0.25215493  0.77636951  0.12041977     0.10900
H1480       H  0.16248923  0.78781590  0.17904219     0.16700
loop_ 
_geom_bond_atom_site_label_1 
_geom_bond_atom_site_label_2 
_geom_bond_distance 
_geom_bond_site_symmetry_2 
_ccdc_geom_bond_type 
C1            N2   1.360       .  A
C1            N6   1.354       .  A
C1         C1437   1.489       .  S
N2            C3   1.363   1_556  A
C3            N4   1.364       .  A
C3           C45   1.476       .  S
N4            C5   1.362       .  A
C5            N6   1.357   1_554  A
C5         C1461   1.500       .  S
C7            N8   1.361       .  A
C7           N12   1.357   1_564  A
C7         C1418   1.492   1_565  S
N8            C9   1.363   1_554  A
C9           N10   1.361       .  A
C9           C39   1.476       .  S
N10          C11   1.360       .  A
C11          N12   1.358   1_565  A
C11        C1389   1.485   1_565  S
C13          N14   1.363       .  A
C13          N18   1.357       .  A
C13        C1370   1.493       .  S
N14          C15   1.365       .  A
C15          N16   1.360       .  A
C15          C57   1.476       .  S
N16          C17   1.357       .  A
C17          N18   1.356       .  A
C17        C1346   1.479       .  S
C19          N20   1.358       .  A
C19          N24   1.360       .  A
C19        C1317   1.492       .  S
N20          C21   1.359       .  A
C21          N22   1.362       .  A
C21        C1293   1.492       .  S
N22          C23   1.364       .  A
C23          N24   1.362       .  A
C23          C51   1.479       .  S
C25          N26   1.361       .  A
C25          N30   1.356       .  A
C25        C1269   1.498       .  S
N26          C27   1.362       .  A
C27          N28   1.365       .  A
C27          C65   1.476   1_554  S
N28          C29   1.360       .  A
C29          N30   1.354       .  A
C29        C1245   1.489       .  S
C31          N32   1.359       .  A
C31          N36   1.358       .  A
C31        C1197   1.482       .  S
N32          C33   1.362       .  A
C33          N34   1.362       .  A
C33        C1221   1.499       .  S
N34          C35   1.362       .  A
C35          N36   1.360       .  A
C35          C69   1.475   1_556  S
C37          N38   1.364       .  A
C37          N42   1.361       .  A
C37        C1154   1.505       .  S
N38          C39   1.363       .  A
C39          N40   1.358   1_556  A
N40          C41   1.357       .  A
C41          N42   1.360   1_554  A
C41        C1178   1.479       .  S
C43          N44   1.359       .  A
C43          N48   1.356   1_566  A
C43        C1106   1.486   1_565  S
N44          C45   1.362   1_556  A
C45          N46   1.363       .  A
N46          C47   1.361       .  A
C47          N48   1.356   1_565  A
C47        C1125   1.484   1_565  S
C49          N50   1.361       .  A
C49          N54   1.354       .  A
C49        C1077   1.490       .  S
N50          C51   1.366       .  A
C51          N52   1.365       .  A
N52          C53   1.362       .  A
C53          N54   1.355       .  A
C53        C1053   1.494       .  S
C55          N56   1.363       .  A
C55          N60   1.353       .  A
C55        C1005   1.499   1_655  S
N56          C57   1.366       .  A
C57          N58   1.362       .  A
N58          C59   1.359       .  A
C59          N60   1.354       .  A
C59        C1029   1.482       .  S
C61          N62   1.356       .  A
C61          N66   1.357       .  A
C61         C957   1.495       .  S
N62          C63   1.355       .  A
C63          N64   1.364       .  A
C63         C981   1.495       .  S
N64          C65   1.366       .  A
C65          N66   1.359       .  A
C67          N68   1.359       .  A
C67          N72   1.357       .  A
C67         C914   1.483       .  S
N68          C69   1.361       .  A
C69          N70   1.362       .  A
N70          C71   1.362       .  A
C71          N72   1.359       .  A
C71         C933   1.491       .  S
C73          N74   1.361       .  A
C73          N78   1.357       .  A
C73         C885   1.495       .  S
N74          C75   1.363       .  A
C75          N76   1.364       .  A
C75         C180   1.479       .  S
N76          C77   1.361       .  A
C77          N78   1.356       .  A
C77         C866   1.487       .  S
C79          N80   1.361       .  A
C79          N84   1.360       .  A
C79         C818   1.497       .  S
N80          C81   1.360       .  A
C81          N82   1.362       .  A
C81         C256   1.476       .  S
N82          C83   1.359       .  A
C83          N84   1.358       .  A
C83         C837   1.488       .  S
C85          N86   1.359       .  A
C85          N90   1.359       .  A
C85         C789   1.493       .  S
N86          C87   1.360       .  A
C87          N88   1.357       .  A
C87         C151   1.471       .  S
N88          C89   1.359       .  A
C89          N90   1.359       .  A
C89         C765   1.491       .  S
O91         C107   1.271       .  A
O91         Zn97   1.996       .  S
C92         C861   1.493       .  S
C92         O108   1.273       .  A
C92         O105   1.277       .  A
O93         C106   1.276       .  A
O93        Cd100   2.092       .  S
O94         C112   1.276       .  A
O94        Cd103   2.064       .  S
O95         C109   1.277       .  A
O95         Cd99   2.082       .  S
O96         C107   1.277       .  A
O96         Cd99   2.091       .  S
Zn97        O108   2.000       .  S
Zn97        O110   2.007       .  S
Zn97        O102   1.930       .  S
O98         C109   1.278       .  A
O98        Cd103   2.092       .  S
Cd99        O101   2.082       .  S
Cd99        O102   2.012       .  S
Cd100       O104   2.077       .  S
Cd100       O113   2.089       .  S
Cd100       O102   2.012       .  S
O101        C111   1.277       .  A
O102       Cd103   2.007       .  S
Cd103       O105   2.093       .  S
O104        C111   1.277       .  A
C106        C746   1.499       .  S
C106        O110   1.273       .  A
C107        C794   1.493       .  S
C109       C1226   1.489       .  S
C111       C1322   1.488       .  S
C112       C1101   1.488       .  S
C112        O113   1.278       .  A
C114        N115   1.358       .  A
C114        N119   1.357       .  A
C114        C717   1.485       .  S
N115        C116   1.360       .  A
C116        N117   1.365       .  A
C116        C194   1.477       .  S
N117        C118   1.365       .  A
C118        N119   1.357       .  A
C118        C698   1.503       .  S
C120        N121   1.361       .  A
C120        N125   1.353       .  A
C120        C741   1.492       .  S
N121        C122   1.365       .  A
C122        N123   1.366       .  A
C122        C221   1.481       .  S
N123        C124   1.364       .  A
C124        N125   1.353       .  A
C124        C669   1.494       .  S
O126        C142   1.272       .  A
O126       Zn132   2.008       .  S
C127        C722   1.498       .  S
C127        O143   1.272       .  A
C127        O140   1.278       .  A
O128        C141   1.278       .  A
O128       Cd135   2.095       .  S
O129        C147   1.277       .  A
O129       Cd138   2.084       .  S
O130        C144   1.280       .  A
O130       Cd134   2.105       .  S
O131        C142   1.280       .  A
O131       Cd134   2.099       .  S
Zn132       O143   2.003       .  S
Zn132       O145   2.012       .  S
Zn132       O137   1.933       .  S
O133        C144   1.274       .  A
O133       Cd138   2.066       .  S
Cd134       O136   2.072       .  S
Cd134       O137   2.012       .  S
Cd135       O139   2.078       .  S
Cd135       O148   2.081       .  S
Cd135       O137   2.009       .  S
O136        C146   1.276       .  A
O137       Cd138   2.005       .  S
Cd138       O140   2.094       .  S
O139        C146   1.277       .  A
C141        C674   1.500       .  S
C141        O145   1.273       .  A
C142        C645   1.499       .  S
C144       C1202   1.504       .  S
C146       C1394   1.492       .  S
C147       C1082   1.497       .  S
C147        O148   1.278       .  A
C149        N150   1.356       .  A
C149        N154   1.358       .  A
C149        C621   1.486       .  S
N150        C151   1.358       .  A
C151        N152   1.363       .  A
N152        C153   1.362       .  A
C153        N154   1.359       .  A
C153        C602   1.496       .  S
O155        C171   1.274       .  A
O155       Zn161   2.010       .  S
C156       C1298   1.487       .  S
C156        O172   1.273       .  A
C156        O169   1.277       .  A
O157        C170   1.274       .  A
O157       Cd164   2.082       .  S
O158        C176   1.277       .  A
O158       Cd167   2.079       .  S
O159        C173   1.278       .  A
O159       Cd163   2.080       .  S
O160        C171   1.277       .  A
O160       Cd163   2.096       .  S
Zn161       O172   2.004       .  S
Zn161       O174   2.011       .  S
Zn161       O166   1.933       .  S
O162        C173   1.277       .  A
O162       Cd167   2.088       .  S
Cd163       O165   2.095       .  S
Cd163       O166   2.013       .  S
Cd164       O168   2.065       .  S
Cd164       O177   2.076       .  S
Cd164       O166   2.007       .  S
O165        C175   1.279       .  A
O166       Cd167   2.012       .  S
Cd167       O169   2.092       .  S
O168        C175   1.275       .  A
C170        C986   1.497       .  S
C170        O174   1.274       .  A
C171       C1442   1.495       .  S
C173        C573   1.500       .  S
C175        C890   1.489       .  S
C176        C626   1.488       .  S
C176        O177   1.276       .  A
C178        N179   1.360       .  A
C178        N183   1.357       .  A
C178        C549   1.484       .  S
N179        C180   1.363       .  A
C180        N181   1.362       .  A
N181        C182   1.363       .  A
C182        N183   1.359       .  A
C182        C650   1.502       .  S
C184        N185   1.355       .  A
C184        N189   1.361       .  A
C184        C578   1.480       .  S
N185        C186   1.356       .  A
C186        N187   1.358       .  A
C186        C530   1.488       .  S
N187        C188   1.361       .  A
C188        N189   1.364       .  A
C188        C252   1.475       .  S
C190        N191   1.358       .  A
C190        N195   1.361       .  A
C190        C506   1.486       .  S
N191        C192   1.357       .  A
C192        N193   1.361       .  A
C192        C477   1.489       .  S
N193        C194   1.364       .  A
C194        N195   1.362       .  A
O196        C212   1.273       .  A
O196       Zn202   2.014       .  S
C197       C1149   1.497       .  S
C197        O213   1.272       .  A
C197        O210   1.278       .  A
O198        C211   1.277       .  A
O198       Cd205   2.087       .  S
O199        C217   1.277       .  A
O199       Cd208   2.091       .  S
O200        C214   1.277       .  A
O200       Cd204   2.084       .  S
O201        C212   1.278       .  A
O201       Cd204   2.102       .  S
Zn202       O213   2.007       .  S
Zn202       O215   1.995       .  S
Zn202       O207   1.936       .  S
O203        C214   1.275       .  A
O203       Cd208   2.061       .  S
Cd204       O206   2.084       .  S
Cd204       O207   2.015       .  S
Cd205       O209   2.095       .  S
Cd205       O218   2.088       .  S
Cd205       O207   2.010       .  S
O206        C216   1.278       .  A
O207       Cd208   2.009       .  S
Cd208       O210   2.097       .  S
O209        C216   1.278       .  A
C211        C962   1.490       .  S
C211        O215   1.273       .  A
C212       C1058   1.491       .  S
C214        C525   1.482       .  S
C216        C482   1.499       .  S
C217        C554   1.505       .  S
C217        O218   1.278       .  A
C219        N220   1.360       .  A
C219        N224   1.355       .  A
C219        C453   1.485       .  S
N220        C221   1.364       .  A
C221        N222   1.365       .  A
N222        C223   1.364       .  A
C223        N224   1.358       .  A
C223        C429   1.504       .  S
O225        C241   1.274       .  A
O225       Zn231   2.012       .  S
C226        C434   1.498       .  S
C226        O242   1.274       .  A
C226        O239   1.280       .  A
O227        C240   1.276       .  A
O227       Cd234   2.089       .  S
O228        C246   1.280       .  A
O228       Cd237   2.098       .  S
O229        C243   1.276       .  A
O229       Cd233   2.072       .  S
O230        C241   1.277       .  A
O230       Cd233   2.091       .  S
Zn231       O242   2.013       .  S
Zn231       O244   2.019       .  S
Zn231       O236   1.940       .  S
O232        C243   1.280       .  A
O232       Cd237   2.108       .  S
Cd233       O235   2.084       .  S
Cd233       O236   2.009       .  S
Cd234       O238   2.071       .  S
Cd234       O247   2.069       .  S
Cd234       O236   2.007       .  S
O235        C245   1.276       .  A
O236       Cd237   2.021       .  S
Cd237       O239   2.108       .  S
O238        C245   1.275       .  A
C240        C693   1.499       .  S
C240        O244   1.274       .  A
C241        C405   1.494       .  S
C243       C1413   1.496       .  S
C245        C909   1.497       .  S
C246       C1365   1.492       .  S
C246        O247   1.275       .  A
C248        N249   1.358       .  A
C248        N253   1.360       .  A
C248        C381   1.499       .  S
N249        C250   1.357       .  A
C250        N251   1.360       .  A
C250        C357   1.484       .  S
N251        C252   1.361       .  A
C252        N253   1.363       .  A
C254        N255   1.358       .  A
C254        N259   1.355       .  A
C254        C333   1.489       .  S
N255        C256   1.361       .  A
C256        N257   1.365       .  A
N257        C258   1.364       .  A
C258        N259   1.355       .  A
C258        C410   1.491       .  S
O260        C276   1.274       .  A
O260       Zn266   2.006       .  S
C261        C386   1.490       .  S
C261        O277   1.274       .  A
C261        O274   1.276       .  A
O262        C275   1.276       .  A
O262       Cd269   2.085       .  S
O263        C281   1.275       .  A
O263       Cd272   2.078       .  S
O264        C278   1.277       .  A
O264       Cd268   2.090       .  S
O265        C276   1.277       .  A
O265       Cd268   2.089       .  S
Zn266       O277   2.016       .  S
Zn266       O279   2.012       .  S
Zn266       O271   1.934       .  S
O267        C278   1.273       .  A
O267       Cd272   2.058       .  S
Cd268       O270   2.072       .  S
Cd268       O271   2.009       .  S
Cd269       O273   2.082       .  S
Cd269       O282   2.070       .  S
Cd269       O271   2.009       .  S
O270        C280   1.277       .  A
O271       Cd272   2.002       .  S
Cd272       O274   2.088       .  S
O273        C280   1.275       .  A
C275        C338   1.493       .  S
C275        O279   1.275       .  A
C276        C501   1.496       .  S
C278       C1341   1.497       .  S
C280       C1250   1.491       .  S
C281       C1173   1.494       .  S
C281        O282   1.277       .  A
O283        C299   1.274       .  A
O283       Zn289   2.006       .  S
C284       C1010   1.488       .  S
C284        O300   1.273       .  A
C284        O297   1.277       .  A
O285        C298   1.276       .  A
O285       Cd292   2.089       .  S
O286        C304   1.276       .  A
O286       Cd295   2.076       .  S
O287        C301   1.277       .  A
O287       Cd291   2.091       .  S
O288        C299   1.276       .  A
O288       Cd291   2.085       .  S
Zn289       O300   2.008       .  S
Zn289       O302   2.019       .  S
Zn289       O294   1.939       .  S
O290        C301   1.278       .  A
O290       Cd295   2.090       .  S
Cd291       O293   2.073       .  S
Cd291       O294   2.006       .  S
Cd292       O296   2.090       .  S
Cd292       O305   2.076       .  S
Cd292       O294   2.012       .  S
O293        C303   1.275       .  A
O294       Cd295   2.013       .  S
Cd295       O297   2.093       .  S
O296        C303   1.278       .  A
C298       C1466   1.491       .  S
C298        O302   1.274       .  A
C299       C1274   1.491       .  S
C301        C597   1.494       .  S
C303        C842   1.499       .  S
C304        C362   1.484       .  S
C304        O305   1.277       .  A
O306        C322   1.274       .  A
O306       Zn312   2.007       .  S
C307        C770   1.492       .  S
C307        O323   1.274       .  A
C307        O320   1.273       .  A
O308        C321   1.279       .  A
O308       Cd315   2.102       .  S
O309        C327   1.272       .  A
O309       Cd318   2.056       .  S
O310        C324   1.275       .  A
O310       Cd314   2.080       .  S
O311        C322   1.274       .  A
O311       Cd314   2.074       .  S
Zn312       O323   2.010       .  S
Zn312       O325   2.006       .  S
Zn312       O317   1.930       .  S
O313        C324   1.273       .  A
O313       Cd318   2.060       .  S
Cd314       O316   2.058       .  S
Cd314       O317   2.002       .  S
Cd315       O319   2.092       .  S
Cd315       O328   2.084       .  S
Cd315       O317   2.013       .  S
O316        C326   1.273       .  A
O317       Cd318   1.997       .  S
Cd318       O320   2.067       .  S
O319        C326   1.278       .  A
C321        C458   1.497       .  S
C321        O325   1.273       .  A
C322        C813   1.494       .  S
C324        C938   1.483       .  S
C326       C1130   1.497       .  S
C327       C1034   1.488       .  S
C327        O328   1.278       .  A
C329        C330   1.407       .  A
C329        C334   1.396       .  A
C329        C343   1.445       .  S
C330        C335   1.482       .  S
C330        C331   1.402       .  A
C331        C332   1.405       .  A
C331        H350   1.085       .  S
C332        C333   1.418       .  A
C332        C344   1.444       .  S
C333        C334   1.408       .  A
C334        H349   1.085       .  S
C335        C336   1.400       .  A
C335        C340   1.406       .  A
C336        C337   1.404       .  A
C336        H351   1.086       .  S
C337        C338   1.419       .  A
C337        C341   1.443       .  S
C338        C339   1.409       .  A
C339        C340   1.399       .  A
C339        H352   1.086       .  S
C340        C342   1.444       .  S
C341        N345   1.157       .  T
C342        N346   1.157       .  T
C343        N348   1.157       .  T
C344        N347   1.157       .  T
C353        C354   1.410       .  A
C353        C358   1.405       .  A
C353        C367   1.443       .  S
C354        C359   1.483       .  S
C354        C355   1.399       .  A
C355        C356   1.397       .  A
C355        H374   1.085       .  S
C356        C357   1.416       .  A
C356        C368   1.444       .  S
C357        C358   1.407       .  A
C358        H373   1.084       .  S
C359        C360   1.402       .  A
C359        C364   1.409       .  A
C360        C361   1.400       .  A
C360        H375   1.086       .  S
C361        C362   1.414       .  A
C361        C365   1.444       .  S
C362        C363   1.407       .  A
C363        C364   1.402       .  A
C363        H376   1.086       .  S
C364        C366   1.444       .  S
C365        N369   1.157       .  T
C366        N370   1.157       .  T
C367        N372   1.157       .  T
C368        N371   1.157       .  T
C377        C378   1.406       .  A
C377        C382   1.397       .  A
C377        C391   1.445       .  S
C378        C383   1.487       .  S
C378        C379   1.403       .  A
C379        C380   1.408       .  A
C379        H398   1.085       .  S
C380        C381   1.421       .  A
C380        C392   1.443       .  S
C381        C382   1.410       .  A
C382        H397   1.083       .  S
C383        C384   1.403       .  A
C383        C388   1.408       .  A
C384        C385   1.404       .  A
C384        H399   1.086       .  S
C385        C386   1.416       .  A
C385        C389   1.443       .  S
C386        C387   1.408       .  A
C387        C388   1.401       .  A
C387        H400   1.086       .  S
C388        C390   1.444       .  S
C389        N393   1.157       .  T
C390        N394   1.157       .  T
C391        N396   1.157       .  T
C392        N395   1.157       .  T
C401        C402   1.408       .  A
C401        C406   1.399       .  A
C401        C415   1.445       .  S
C402        C407   1.486       .  S
C402        C403   1.402       .  A
C403        C404   1.406       .  A
C403        H422   1.086       .  S
C404        C405   1.418       .  A
C404        C416   1.443       .  S
C405        C406   1.409       .  A
C406        H421   1.085       .  S
C407        C408   1.399       .  A
C407        C412   1.410       .  A
C408        C409   1.401       .  A
C408        H423   1.085       .  S
C409        C410   1.420       .  A
C409        C413   1.445       .  S
C410        C411   1.406       .  A
C411        C412   1.404       .  A
C411        H424   1.083       .  S
C412        C414   1.443       .  S
C413        N417   1.157       .  T
C414        N418   1.157       .  T
C415        N420   1.157       .  T
C416        N419   1.157       .  T
C425        C426   1.407       .  A
C425        C430   1.399       .  A
C425        C439   1.445       .  S
C426        C431   1.492       .  S
C426        C427   1.404       .  A
C427        C428   1.409       .  A
C427        H446   1.085       .  S
C428        C429   1.420       .  A
C428        C440   1.443       .  S
C429        C430   1.412       .  A
C430        H445   1.085       .  S
C431        C432   1.400       .  A
C431        C436   1.411       .  A
C432        C433   1.403       .  A
C432        H447   1.086       .  S
C433        C434   1.421       .  A
C433        C437   1.445       .  S
C434        C435   1.408       .  A
C435        C436   1.406       .  A
C435        H448   1.085       .  S
C436        C438   1.443       .  S
C437        N441   1.158       .  T
C438        N442   1.157       .  T
C439        N444   1.157       .  T
C440        N443   1.157       .  T
C449        C450   1.414       .  A
C449        C454   1.405       .  A
C449        C463   1.444       .  S
C450        C455   1.493       .  S
C450        C451   1.403       .  A
C451        C452   1.401       .  A
C451        H470   1.085       .  S
C452        C453   1.414       .  A
C452        C464   1.444       .  S
C453        C454   1.404       .  A
C454        H469   1.085       .  S
C455        C456   1.401       .  A
C455        C460   1.411       .  A
C456        C457   1.401       .  A
C456        H471   1.086       .  S
C457        C458   1.421       .  A
C457        C461   1.445       .  S
C458        C459   1.408       .  A
C459        C460   1.406       .  A
C459        H472   1.085       .  S
C460        C462   1.443       .  S
C461        N465   1.158       .  T
C462        N466   1.157       .  T
C463        N468   1.157       .  T
C464        N467   1.157       .  T
C473        C474   1.412       .  A
C473        C478   1.401       .  A
C473        C487   1.444       .  S
C474        C479   1.496       .  S
C474        C475   1.406       .  A
C475        C476   1.408       .  A
C475        H494   1.086       .  S
C476        C477   1.414       .  A
C476        C488   1.443       .  S
C477        C478   1.405       .  A
C478        H493   1.086       .  S
C479        C480   1.403       .  A
C479        C484   1.412       .  A
C480        C481   1.407       .  A
C480        H495   1.086       .  S
C481        C482   1.420       .  A
C481        C485   1.444       .  S
C482        C483   1.408       .  A
C483        C484   1.403       .  A
C483        H496   1.085       .  S
C484        C486   1.444       .  S
C485        N489   1.157       .  T
C486        N490   1.157       .  T
C487        N492   1.157       .  T
C488        N491   1.157       .  T
C497        C498   1.408       .  A
C497        C502   1.398       .  A
C497        C511   1.445       .  S
C498        C503   1.487       .  S
C498        C499   1.403       .  A
C499        C500   1.405       .  A
C499        H518   1.086       .  S
C500        C501   1.419       .  A
C500        C512   1.443       .  S
C501        C502   1.410       .  A
C502        H517   1.085       .  S
C503        C504   1.405       .  A
C503        C508   1.409       .  A
C504        C505   1.404       .  A
C504        H519   1.086       .  S
C505        C506   1.415       .  A
C505        C509   1.444       .  S
C506        C507   1.407       .  A
C507        C508   1.399       .  A
C507        H520   1.086       .  S
C508        C510   1.444       .  S
C509        N513   1.157       .  T
C510        N514   1.157       .  T
C511        N516   1.157       .  T
C512        N515   1.157       .  T
C521        C522   1.411       .  A
C521        C526   1.405       .  A
C521        C535   1.443       .  S
C522        C527   1.485       .  S
C522        C523   1.400       .  A
C523        C524   1.395       .  A
C523        H542   1.086       .  S
C524        C525   1.415       .  A
C524        C536   1.445       .  S
C525        C526   1.406       .  A
C526        H541   1.085       .  S
C527        C528   1.403       .  A
C527        C532   1.410       .  A
C528        C529   1.404       .  A
C528        H543   1.085       .  S
C529        C530   1.417       .  A
C529        C533   1.443       .  S
C530        C531   1.407       .  A
C531        C532   1.396       .  A
C531        H544   1.085       .  S
C532        C534   1.445       .  S
C533        N537   1.157       .  T
C534        N538   1.157       .  T
C535        N540   1.157       .  T
C536        N539   1.157       .  T
C545        C546   1.415       .  A
C545        C550   1.406       .  A
C545        C559   1.444       .  S
C546        C551   1.500       .  S
C546        C547   1.407       .  A
C547        C548   1.405       .  A
C547        H566   1.080       .  S
C548        C549   1.412       .  A
C548        C560   1.444       .  S
C549        C550   1.403       .  A
C550        H565   1.080       .  S
C551        C552   1.404       .  A
C551        C556   1.412       .  A
C552        C553   1.407       .  A
C552        H567   1.085       .  S
C553        C554   1.422       .  A
C553        C557   1.444       .  S
C554        C555   1.410       .  A
C555        C556   1.404       .  A
C555        H568   1.085       .  S
C556        C558   1.444       .  S
C557        N561   1.157       .  T
C558        N562   1.157       .  T
C559        N564   1.157       .  T
C560        N563   1.157       .  T
C569        C570   1.409       .  A
C569        C574   1.400       .  A
C569        C583   1.444       .  S
C570        C575   1.489       .  S
C570        C571   1.401       .  A
C571        C572   1.405       .  A
C571        H590   1.086       .  S
C572        C573   1.422       .  A
C572        C584   1.443       .  S
C573        C574   1.410       .  A
C574        H589   1.085       .  S
C575        C576   1.402       .  A
C575        C580   1.412       .  A
C576        C577   1.398       .  A
C576        H591   1.086       .  S
C577        C578   1.413       .  A
C577        C581   1.445       .  S
C578        C579   1.405       .  A
C579        C580   1.406       .  A
C579        H592   1.085       .  S
C580        C582   1.443       .  S
C581        N585   1.157       .  T
C582        N586   1.157       .  T
C583        N588   1.157       .  T
C584        N587   1.157       .  T
C593        C594   1.411       .  A
C593        C598   1.405       .  A
C593        C607   1.444       .  S
C594        C599   1.491       .  S
C594        C595   1.400       .  A
C595        C596   1.404       .  A
C595        H614   1.086       .  S
C596        C597   1.418       .  A
C596        C608   1.442       .  S
C597        C598   1.407       .  A
C598        H613   1.085       .  S
C599        C600   1.404       .  A
C599        C604   1.408       .  A
C600        C601   1.409       .  A
C600        H615   1.086       .  S
C601        C602   1.419       .  A
C601        C605   1.444       .  S
C602        C603   1.408       .  A
C603        C604   1.400       .  A
C603        H616   1.086       .  S
C604        C606   1.444       .  S
C605        N609   1.158       .  T
C606        N610   1.157       .  T
C607        N612   1.157       .  T
C608        N611   1.157       .  T
C617        C618   1.410       .  A
C617        C622   1.396       .  A
C617        C631   1.445       .  S
C618        C623   1.485       .  S
C618        C619   1.403       .  A
C619        C620   1.405       .  A
C619        H638   1.085       .  S
C620        C621   1.418       .  A
C620        C632   1.444       .  S
C621        C622   1.404       .  A
C622        H637   1.086       .  S
C623        C624   1.402       .  A
C623        C628   1.409       .  A
C624        C625   1.398       .  A
C624        H639   1.086       .  S
C625        C626   1.415       .  A
C625        C629   1.444       .  S
C626        C627   1.409       .  A
C627        C628   1.404       .  A
C627        H640   1.085       .  S
C628        C630   1.444       .  S
C629        N633   1.157       .  T
C630        N634   1.157       .  T
C631        N636   1.157       .  T
C632        N635   1.158       .  T
C641        C642   1.409       .  A
C641        C646   1.402       .  A
C641        C655   1.443       .  S
C642        C647   1.491       .  S
C642        C643   1.401       .  A
C643        C644   1.404       .  A
C643        H662   1.085       .  S
C644        C645   1.424       .  A
C644        C656   1.445       .  S
C645        C646   1.408       .  A
C646        H661   1.084       .  S
C647        C648   1.400       .  A
C647        C652   1.409       .  A
C648        C649   1.401       .  A
C648        H663   1.086       .  S
C649        C650   1.423       .  A
C649        C653   1.444       .  S
C650        C651   1.412       .  A
C651        C652   1.405       .  A
C651        H664   1.084       .  S
C652        C654   1.444       .  S
C653        N657   1.157       .  T
C654        N658   1.157       .  T
C655        N660   1.157       .  T
C656        N659   1.157       .  T
C665        C666   1.414       .  A
C665        C670   1.405       .  A
C665        C679   1.444       .  S
C666        C671   1.495       .  S
C666        C667   1.401       .  A
C667        C668   1.400       .  A
C667        H686   1.084       .  S
C668        C669   1.421       .  A
C668        C680   1.445       .  S
C669        C670   1.406       .  A
C670        H685   1.083       .  S
C671        C672   1.401       .  A
C671        C676   1.412       .  A
C672        C673   1.400       .  A
C672        H687   1.086       .  S
C673        C674   1.422       .  A
C673        C677   1.444       .  S
C674        C675   1.410       .  A
C675        C676   1.405       .  A
C675        H688   1.085       .  S
C676        C678   1.444       .  S
C677        N681   1.157       .  T
C678        N682   1.157       .  T
C679        N684   1.157       .  T
C680        N683   1.158       .  T
C689        C690   1.407       .  A
C689        C694   1.402       .  A
C689        C703   1.444       .  S
C690        C695   1.488       .  S
C690        C691   1.402       .  A
C691        C692   1.406       .  A
C691        H710   1.085       .  S
C692        C693   1.420       .  A
C692        C704   1.443       .  S
C693        C694   1.411       .  A
C694        H709   1.085       .  S
C695        C696   1.398       .  A
C695        C700   1.408       .  A
C696        C697   1.401       .  A
C696        H711   1.085       .  S
C697        C698   1.425       .  A
C697        C701   1.445       .  S
C698        C699   1.412       .  A
C699        C700   1.406       .  A
C699        H712   1.084       .  S
C700        C702   1.443       .  S
C701        N705   1.158       .  T
C702        N706   1.157       .  T
C703        N708   1.157       .  T
C704        N707   1.157       .  T
C713        C714   1.415       .  A
C713        C718   1.403       .  A
C713        C727   1.444       .  S
C714        C719   1.493       .  S
C714        C715   1.404       .  A
C715        C716   1.400       .  A
C715        H734   1.085       .  S
C716        C717   1.414       .  A
C716        C728   1.444       .  S
C717        C718   1.405       .  A
C718        H733   1.085       .  S
C719        C720   1.401       .  A
C719        C724   1.412       .  A
C720        C721   1.398       .  A
C720        H735   1.086       .  S
C721        C722   1.422       .  A
C721        C725   1.445       .  S
C722        C723   1.410       .  A
C723        C724   1.406       .  A
C723        H736   1.085       .  S
C724        C726   1.444       .  S
C725        N729   1.157       .  T
C726        N730   1.157       .  T
C727        N732   1.157       .  T
C728        N731   1.157       .  T
C737        C738   1.409       .  A
C737        C742   1.407       .  A
C737        C751   1.443       .  S
C738        C743   1.486       .  S
C738        C739   1.399       .  A
C739        C740   1.397       .  A
C739        H758   1.085       .  S
C740        C741   1.421       .  A
C740        C752   1.445       .  S
C741        C742   1.408       .  A
C742        H757   1.084       .  S
C743        C744   1.402       .  A
C743        C748   1.407       .  A
C744        C745   1.407       .  A
C744        H759   1.083       .  S
C745        C746   1.420       .  A
C745        C749   1.443       .  S
C746        C747   1.411       .  A
C747        C748   1.399       .  A
C747        H760   1.083       .  S
C748        C750   1.445       .  S
C749        N753   1.157       .  T
C750        N754   1.157       .  T
C751        N756   1.157       .  T
C752        N755   1.158       .  T
C761        C762   1.407       .  A
C761        C766   1.399       .  A
C761        C775   1.444       .  S
C762        C767   1.481       .  S
C762        C763   1.400       .  A
C763        C764   1.399       .  A
C763        H782   1.086       .  S
C764        C765   1.420       .  A
C764        C776   1.444       .  S
C765        C766   1.410       .  A
C766        H781   1.085       .  S
C767        C768   1.401       .  A
C767        C772   1.407       .  A
C768        C769   1.403       .  A
C768        H783   1.086       .  S
C769        C770   1.421       .  A
C769        C773   1.444       .  S
C770        C771   1.409       .  A
C771        C772   1.396       .  A
C771        H784   1.085       .  S
C772        C774   1.445       .  S
C773        N777   1.158       .  T
C774        N778   1.157       .  T
C775        N780   1.157       .  T
C776        N779   1.157       .  T
C785        C786   1.407       .  A
C785        C790   1.400       .  A
C785        C799   1.444       .  S
C786        C791   1.483       .  S
C786        C787   1.401       .  A
C787        C788   1.403       .  A
C787        H806   1.086       .  S
C788        C789   1.420       .  A
C788        C800   1.444       .  S
C789        C790   1.409       .  A
C790        H805   1.086       .  S
C791        C792   1.398       .  A
C791        C796   1.408       .  A
C792        C793   1.398       .  A
C792        H807   1.086       .  S
C793        C794   1.422       .  A
C793        C797   1.446       .  S
C794        C795   1.409       .  A
C795        C796   1.404       .  A
C795        H808   1.085       .  S
C796        C798   1.443       .  S
C797        N801   1.158       .  T
C798        N802   1.157       .  T
C799        N804   1.157       .  T
C800        N803   1.157       .  T
C809        C810   1.409       .  A
C809        C814   1.397       .  A
C809        C823   1.445       .  S
C810        C815   1.488       .  S
C810        C811   1.403       .  A
C811        C812   1.404       .  A
C811        H830   1.085       .  S
C812        C813   1.420       .  A
C812        C824   1.444       .  S
C813        C814   1.409       .  A
C814        H829   1.085       .  S
C815        C816   1.402       .  A
C815        C820   1.408       .  A
C816        C817   1.402       .  A
C816        H831   1.086       .  S
C817        C818   1.420       .  A
C817        C821   1.443       .  S
C818        C819   1.410       .  A
C819        C820   1.400       .  A
C819        H832   1.085       .  S
C820        C822   1.444       .  S
C821        N825   1.157       .  T
C822        N826   1.157       .  T
C823        N828   1.157       .  T
C824        N827   1.158       .  T
C833        C834   1.412       .  A
C833        C838   1.401       .  A
C833        C847   1.444       .  S
C834        C839   1.494       .  S
C834        C835   1.406       .  A
C835        C836   1.406       .  A
C835        H854   1.085       .  S
C836        C837   1.415       .  A
C836        C848   1.444       .  S
C837        C838   1.405       .  A
C838        H853   1.085       .  S
C839        C840   1.402       .  A
C839        C844   1.411       .  A
C840        C841   1.399       .  A
C840        H855   1.085       .  S
C841        C842   1.420       .  A
C841        C845   1.444       .  S
C842        C843   1.411       .  A
C843        C844   1.407       .  A
C843        H856   1.084       .  S
C844        C846   1.443       .  S
C845        N849   1.157       .  T
C846        N850   1.157       .  T
C847        N852   1.157       .  T
C848        N851   1.157       .  T
C857        C858   1.407       .  A
C857        C862   1.399       .  A
C857        C871   1.444       .  S
C858        C863   1.486       .  S
C858        C859   1.403       .  A
C859        C860   1.405       .  A
C859        H878   1.085       .  S
C860        C861   1.417       .  A
C860        C872   1.443       .  S
C861        C862   1.409       .  A
C862        H877   1.085       .  S
C863        C864   1.400       .  A
C863        C868   1.410       .  A
C864        C865   1.398       .  A
C864        H879   1.085       .  S
C865        C866   1.416       .  A
C865        C869   1.444       .  S
C866        C867   1.407       .  A
C867        C868   1.407       .  A
C867        H880   1.084       .  S
C868        C870   1.443       .  S
C869        N873   1.157       .  T
C870        N874   1.157       .  T
C871        N876   1.157       .  T
C872        N875   1.157       .  T
C881        C882   1.410       .  A
C881        C886   1.398       .  A
C881        C895   1.445       .  S
C882        C887   1.491       .  S
C882        C883   1.404       .  A
C883        C884   1.406       .  A
C883        H902   1.086       .  S
C884        C885   1.418       .  A
C884        C896   1.443       .  S
C885        C886   1.408       .  A
C886        H901   1.085       .  S
C887        C888   1.403       .  A
C887        C892   1.411       .  A
C888        C889   1.401       .  A
C888        H903   1.086       .  S
C889        C890   1.416       .  A
C889        C893   1.445       .  S
C890        C891   1.406       .  A
C891        C892   1.404       .  A
C891        H904   1.085       .  S
C892        C894   1.443       .  S
C893        N897   1.157       .  T
C894        N898   1.157       .  T
C895        N900   1.157       .  T
C896        N899   1.157       .  T
C905        C906   1.409       .  A
C905        C910   1.399       .  A
C905        C919   1.445       .  S
C906        C911   1.489       .  S
C906        C907   1.402       .  A
C907        C908   1.406       .  A
C907        H926   1.084       .  S
C908        C909   1.420       .  A
C908        C920   1.444       .  S
C909        C910   1.409       .  A
C910        H925   1.083       .  S
C911        C912   1.403       .  A
C911        C916   1.411       .  A
C912        C913   1.404       .  A
C912        H927   1.086       .  S
C913        C914   1.414       .  A
C913        C917   1.443       .  S
C914        C915   1.404       .  A
C915        C916   1.401       .  A
C915        H928   1.086       .  S
C916        C918   1.444       .  S
C917        N921   1.157       .  T
C918        N922   1.157       .  T
C919        N924   1.157       .  T
C920        N923   1.157       .  T
C929        C930   1.408   1_655  A
C929        C934   1.399       .  A
C929        C943   1.445       .  S
C930        C935   1.485       .  S
C930        C931   1.402       .  A
C931        C932   1.404   1_455  A
C931        H950   1.086       .  S
C932        C933   1.418       .  A
C932        C944   1.443   1_655  S
C933        C934   1.408       .  A
C934        H949   1.086       .  S
C935        C936   1.400       .  A
C935        C940   1.410       .  A
C936        C937   1.397       .  A
C936        H951   1.086       .  S
C937        C938   1.416       .  A
C937        C941   1.446       .  S
C938        C939   1.407       .  A
C939        C940   1.405       .  A
C939        H952   1.085       .  S
C940        C942   1.443       .  S
C941        N945   1.158       .  T
C942        N946   1.157       .  T
C943        N948   1.157       .  T
C944        N947   1.157       .  T
C953        C954   1.405       .  A
C953        C958   1.395       .  A
C953        C967   1.445       .  S
C954        C959   1.480       .  S
C954        C955   1.401       .  A
C955        C956   1.404       .  A
C955        H974   1.086       .  S
C956        C957   1.422       .  A
C956        C968   1.444       .  S
C957        C958   1.410       .  A
C958        H973   1.085       .  S
C959        C960   1.401       .  A
C959        C964   1.406       .  A
C960        C961   1.400       .  A
C960        H975   1.086       .  S
C961        C962   1.416       .  A
C961        C965   1.443       .  S
C962        C963   1.411       .  A
C963        C964   1.399       .  A
C963        H976   1.085       .  S
C964        C966   1.445       .  S
C965        N969   1.157       .  T
C966        N970   1.157       .  T
C967        N972   1.157       .  T
C968        N971   1.157       .  T
C977        C978   1.410       .  A
C977        C982   1.405   1_455  A
C977        C991   1.443       .  S
C978        C983   1.487       .  S
C978        C979   1.398   1_455  A
C979        C980   1.401       .  A
C979        H998   1.085       .  S
C980        C981   1.422       .  A
C980        C992   1.445       .  S
C981        C982   1.407       .  A
C982        H997   1.084       .  S
C983        C984   1.402       .  A
C983        C988   1.408       .  A
C984        C985   1.406       .  A
C984        H999   1.086       .  S
C985        C986   1.421       .  A
C985        C989   1.444       .  S
C986        C987   1.410       .  A
C987        C988   1.398       .  A
C987       H1000   1.085       .  S
C988        C990   1.444       .  S
C989        N993   1.157       .  T
C990        N994   1.157       .  T
C991        N996   1.157       .  T
C992        N995   1.157       .  T
C1001      C1002   1.411       .  A
C1001      C1006   1.406   1_455  A
C1001      C1015   1.443   1_455  S
C1002      C1007   1.491       .  S
C1002      C1003   1.399       .  A
C1003      C1004   1.399       .  A
C1003      H1022   1.085       .  S
C1004      C1005   1.424       .  A
C1004      C1016   1.445       .  S
C1005      C1006   1.409   1_455  A
C1006      H1021   1.084       .  S
C1007      C1008   1.402       .  A
C1007      C1012   1.413       .  A
C1008      C1009   1.401       .  A
C1008      H1023   1.085       .  S
C1009      C1010   1.417       .  A
C1009      C1013   1.445       .  S
C1010      C1011   1.406       .  A
C1011      C1012   1.404       .  A
C1011      H1024   1.085       .  S
C1012      C1014   1.444       .  S
C1013      N1017   1.157       .  T
C1014      N1018   1.157       .  T
C1015      N1020   1.157       .  T
C1016      N1019   1.158       .  T
C1025      C1026   1.410       .  A
C1025      C1030   1.404   1_455  A
C1025      C1039   1.443   1_455  S
C1026      C1031   1.483       .  S
C1026      C1027   1.400       .  A
C1027      C1028   1.397   1_545  A
C1027      H1046   1.085       .  S
C1028      C1029   1.415   1_455  A
C1028      C1040   1.445       .  S
C1029      C1030   1.406   1_565  A
C1030      H1045   1.084       .  S
C1031      C1032   1.401       .  A
C1031      C1036   1.410       .  A
C1032      C1033   1.403       .  A
C1032      H1047   1.086       .  S
C1033      C1034   1.420       .  A
C1033      C1037   1.444       .  S
C1034      C1035   1.406       .  A
C1035      C1036   1.398       .  A
C1035      H1048   1.086       .  S
C1036      C1038   1.445       .  S
C1037      N1041   1.157       .  T
C1038      N1042   1.157       .  T
C1039      N1044   1.157       .  T
C1040      N1043   1.157       .  T
C1049      C1050   1.411       .  A
C1049      C1054   1.408       .  A
C1049      C1063   1.443       .  S
C1050      C1055   1.489       .  S
C1050      C1051   1.399       .  A
C1051      C1052   1.398       .  A
C1051      H1070   1.085       .  S
C1052      C1053   1.421       .  A
C1052      C1064   1.445       .  S
C1053      C1054   1.409       .  A
C1054      H1069   1.084       .  S
C1055      C1056   1.401       .  A
C1055      C1060   1.411       .  A
C1056      C1057   1.403       .  A
C1056      H1071   1.086       .  S
C1057      C1058   1.418       .  A
C1057      C1061   1.445       .  S
C1058      C1059   1.406       .  A
C1059      C1060   1.405       .  A
C1059      H1072   1.085       .  S
C1060      C1062   1.443       .  S
C1061      N1065   1.157       .  T
C1062      N1066   1.157       .  T
C1063      N1068   1.157       .  T
C1064      N1067   1.158       .  T
C1073      C1074   1.412       .  A
C1073      C1078   1.408       .  A
C1073      C1087   1.443       .  S
C1074      C1079   1.492       .  S
C1074      C1075   1.401       .  A
C1075      C1076   1.400       .  A
C1075      H1094   1.085       .  S
C1076      C1077   1.417   1_545  A
C1076      C1088   1.444   1_545  S
C1077      C1078   1.407   1_565  A
C1078      H1093   1.084       .  S
C1079      C1080   1.403       .  A
C1079      C1084   1.411       .  A
C1080      C1081   1.407       .  A
C1080      H1095   1.085       .  S
C1081      C1082   1.420       .  A
C1081      C1085   1.444       .  S
C1082      C1083   1.408       .  A
C1083      C1084   1.401       .  A
C1083      H1096   1.085       .  S
C1084      C1086   1.445       .  S
C1085      N1089   1.157       .  T
C1086      N1090   1.157       .  T
C1087      N1092   1.157       .  T
C1088      N1091   1.157       .  T
C1097      C1098   1.410       .  A
C1097      C1102   1.397       .  A
C1097      C1111   1.445       .  S
C1098      C1103   1.487       .  S
C1098      C1099   1.404       .  A
C1099      C1100   1.406       .  A
C1099      H1118   1.085       .  S
C1100      C1101   1.416       .  A
C1100      C1112   1.444       .  S
C1101      C1102   1.406       .  A
C1102      H1117   1.086       .  S
C1103      C1104   1.403       .  A
C1103      C1108   1.410       .  A
C1104      C1105   1.403       .  A
C1104      H1119   1.086       .  S
C1105      C1106   1.415       .  A
C1105      C1109   1.444   1_545  S
C1106      C1107   1.407       .  A
C1107      C1108   1.400       .  A
C1107      H1120   1.086       .  S
C1108      C1110   1.444       .  S
C1109      N1113   1.157       .  T
C1110      N1114   1.157       .  T
C1111      N1116   1.157       .  T
C1112      N1115   1.157       .  T
C1121      C1122   1.412       .  A
C1121      C1126   1.399       .  A
C1121      C1135   1.444       .  S
C1122      C1127   1.492       .  S
C1122      C1123   1.406       .  A
C1123      C1124   1.405       .  A
C1123      H1142   1.086       .  S
C1124      C1125   1.413       .  A
C1124      C1136   1.444   1_545  S
C1125      C1126   1.405       .  A
C1126      H1141   1.086       .  S
C1127      C1128   1.401       .  A
C1127      C1132   1.410       .  A
C1128      C1129   1.399       .  A
C1128      H1143   1.086       .  S
C1129      C1130   1.422       .  A
C1129      C1133   1.445       .  S
C1130      C1131   1.410       .  A
C1131      C1132   1.405       .  A
C1131      H1144   1.085       .  S
C1132      C1134   1.443       .  S
C1133      N1137   1.158       .  T
C1134      N1138   1.157       .  T
C1135      N1140   1.157       .  T
C1136      N1139   1.157       .  T
C1145      C1146   1.412       .  A
C1145      C1150   1.405       .  A
C1145      C1159   1.443       .  S
C1146      C1151   1.495       .  S
C1146      C1147   1.402       .  A
C1147      C1148   1.402       .  A
C1147      H1166   1.085       .  S
C1148      C1149   1.421       .  A
C1148      C1160   1.445       .  S
C1149      C1150   1.408       .  A
C1150      H1165   1.085       .  S
C1151      C1152   1.401       .  A
C1151      C1156   1.410       .  A
C1152      C1153   1.403       .  A
C1152      H1167   1.084       .  S
C1153      C1154   1.423       .  A
C1153      C1157   1.443       .  S
C1154      C1155   1.412       .  A
C1155      C1156   1.406       .  A
C1155      H1168   1.082       .  S
C1156      C1158   1.444       .  S
C1157      N1161   1.157       .  T
C1158      N1162   1.157       .  T
C1159      N1164   1.157       .  T
C1160      N1163   1.158       .  T
C1169      C1170   1.407       .  A
C1169      C1174   1.396       .  A
C1169      C1183   1.445       .  S
C1170      C1175   1.486       .  S
C1170      C1171   1.403       .  A
C1171      C1172   1.407       .  A
C1171      H1190   1.086       .  S
C1172      C1173   1.420       .  A
C1172      C1184   1.444       .  S
C1173      C1174   1.408       .  A
C1174      H1189   1.086       .  S
C1175      C1176   1.403       .  A
C1175      C1180   1.410       .  A
C1176      C1177   1.400       .  A
C1176      H1191   1.084       .  S
C1177      C1178   1.410       .  A
C1177      C1181   1.443       .  S
C1178      C1179   1.405       .  A
C1179      C1180   1.404       .  A
C1179      H1192   1.084       .  S
C1180      C1182   1.443       .  S
C1181      N1185   1.157       .  T
C1182      N1186   1.157       .  T
C1183      N1188   1.157       .  T
C1184      N1187   1.157       .  T
C1193      C1194   1.415       .  A
C1193      C1198   1.403       .  A
C1193      C1207   1.444       .  S
C1194      C1199   1.497       .  S
C1194      C1195   1.406       .  A
C1195      C1196   1.406       .  A
C1195      H1214   1.084       .  S
C1196      C1197   1.412       .  A
C1196      C1208   1.443       .  S
C1197      C1198   1.402       .  A
C1198      H1213   1.084       .  S
C1199      C1200   1.401       .  A
C1199      C1204   1.412       .  A
C1200      C1201   1.400       .  A
C1200      H1215   1.086       .  S
C1201      C1202   1.423       .  A
C1201      C1205   1.445       .  S
C1202      C1203   1.412       .  A
C1203      C1204   1.409       .  A
C1203      H1216   1.085       .  S
C1204      C1206   1.443       .  S
C1205      N1209   1.157       .  T
C1206      N1210   1.157       .  T
C1207      N1212   1.157       .  T
C1208      N1211   1.157       .  T
C1217      C1218   1.411   1_655  A
C1217      C1222   1.402       .  A
C1217      C1231   1.444       .  S
C1218      C1223   1.495       .  S
C1218      C1219   1.404       .  A
C1219      C1220   1.407   1_455  A
C1219      H1238   1.086       .  S
C1220      C1221   1.420       .  A
C1220      C1232   1.443   1_655  S
C1221      C1222   1.408       .  A
C1222      H1237   1.085       .  S
C1223      C1224   1.405       .  A
C1223      C1228   1.412       .  A
C1224      C1225   1.403       .  A
C1224      H1239   1.086       .  S
C1225      C1226   1.414       .  A
C1225      C1229   1.444       .  S
C1226      C1227   1.407       .  A
C1227      C1228   1.406       .  A
C1227      H1240   1.086       .  S
C1228      C1230   1.444       .  S
C1229      N1233   1.157       .  T
C1230      N1234   1.157       .  T
C1231      N1236   1.157       .  T
C1232      N1235   1.157       .  T
C1241      C1242   1.412       .  A
C1241      C1246   1.408       .  A
C1241      C1255   1.443       .  S
C1242      C1247   1.489       .  S
C1242      C1243   1.400       .  A
C1243      C1244   1.396       .  A
C1243      H1262   1.086       .  S
C1244      C1245   1.417       .  A
C1244      C1256   1.445       .  S
C1245      C1246   1.408       .  A
C1246      H1261   1.085       .  S
C1247      C1248   1.404       .  A
C1247      C1252   1.410       .  A
C1248      C1249   1.408       .  A
C1248      H1263   1.086       .  S
C1249      C1250   1.418       .  A
C1249      C1253   1.442       .  S
C1250      C1251   1.405       .  A
C1251      C1252   1.396       .  A
C1251      H1264   1.086       .  S
C1252      C1254   1.445       .  S
C1253      N1257   1.157       .  T
C1254      N1258   1.157       .  T
C1255      N1260   1.157       .  T
C1256      N1259   1.157       .  T
C1265      C1266   1.406   1_655  A
C1265      C1270   1.397       .  A
C1265      C1279   1.445       .  S
C1266      C1271   1.485       .  S
C1266      C1267   1.402       .  A
C1267      C1268   1.404   1_455  A
C1267      H1286   1.085       .  S
C1268      C1269   1.420       .  A
C1268      C1280   1.442   1_655  S
C1269      C1270   1.413       .  A
C1270      H1285   1.084       .  S
C1271      C1272   1.403       .  A
C1271      C1276   1.407       .  A
C1272      C1273   1.404       .  A
C1272      H1287   1.085       .  S
C1273      C1274   1.418       .  A
C1273      C1277   1.444       .  S
C1274      C1275   1.408       .  A
C1275      C1276   1.398       .  A
C1275      H1288   1.084       .  S
C1276      C1278   1.445       .  S
C1277      N1281   1.157       .  T
C1278      N1282   1.157       .  T
C1279      N1284   1.157       .  T
C1280      N1283   1.157       .  T
C1289      C1290   1.408       .  A
C1289      C1294   1.398       .  A
C1289      C1303   1.445       .  S
C1290      C1295   1.487       .  S
C1290      C1291   1.403       .  A
C1291      C1292   1.408   1_455  A
C1291      H1310   1.086   1_455  S
C1292      C1293   1.418       .  A
C1292      C1304   1.443       .  S
C1293      C1294   1.407   1_655  A
C1294      H1309   1.086       .  S
C1295      C1296   1.401       .  A
C1295      C1300   1.411       .  A
C1296      C1297   1.401       .  A
C1296      H1311   1.086       .  S
C1297      C1298   1.417       .  A
C1297      C1301   1.445       .  S
C1298      C1299   1.406       .  A
C1299      C1300   1.404       .  A
C1299      H1312   1.085       .  S
C1300      C1302   1.443       .  S
C1301      N1305   1.158       .  T
C1302      N1306   1.157       .  T
C1303      N1308   1.157       .  T
C1304      N1307   1.157       .  T
C1313      C1314   1.411       .  A
C1313      C1318   1.400   1_545  A
C1313      C1327   1.445       .  S
C1314      C1319   1.491       .  S
C1314      C1315   1.404       .  A
C1315      C1316   1.406   1_455  A
C1315      H1334   1.086       .  S
C1316      C1317   1.417   1_545  A
C1316      C1328   1.443       .  S
C1317      C1318   1.407   1_655  A
C1318      H1333   1.086       .  S
C1319      C1320   1.403       .  A
C1319      C1324   1.411       .  A
C1320      C1321   1.401       .  A
C1320      H1335   1.087       .  S
C1321      C1322   1.415       .  A
C1321      C1325   1.444       .  S
C1322      C1323   1.408       .  A
C1323      C1324   1.404       .  A
C1323      H1336   1.086       .  S
C1324      C1326   1.444       .  S
C1325      N1329   1.157       .  T
C1326      N1330   1.157   1_455  T
C1327      N1332   1.157       .  T
C1328      N1331   1.157       .  T
C1337      C1338   1.412       .  A
C1337      C1342   1.407       .  A
C1337      C1351   1.444       .  S
C1338      C1343   1.493       .  S
C1338      C1339   1.401       .  A
C1339      C1340   1.396       .  A
C1339      H1358   1.087       .  S
C1340      C1341   1.421       .  A
C1340      C1352   1.445       .  S
C1341      C1342   1.411       .  A
C1342      H1357   1.086       .  S
C1343      C1344   1.406       .  A
C1343      C1348   1.414       .  A
C1344      C1345   1.404       .  A
C1344      H1359   1.086       .  S
C1345      C1346   1.412       .  A
C1345      C1349   1.444       .  S
C1346      C1347   1.402       .  A
C1347      C1348   1.399       .  A
C1347      H1360   1.086       .  S
C1348      C1350   1.445       .  S
C1349      N1353   1.157       .  T
C1350      N1354   1.157       .  T
C1351      N1356   1.157       .  T
C1352      N1355   1.157       .  T
C1361      C1362   1.413       .  A
C1361      C1366   1.403       .  A
C1361      C1375   1.444       .  S
C1362      C1367   1.493       .  S
C1362      C1363   1.402       .  A
C1363      C1364   1.404       .  A
C1363      H1382   1.086       .  S
C1364      C1365   1.420       .  A
C1364      C1376   1.445       .  S
C1365      C1366   1.405       .  A
C1366      H1381   1.085       .  S
C1367      C1368   1.401       .  A
C1367      C1372   1.412       .  A
C1368      C1369   1.399   1_545  A
C1368      H1383   1.086       .  S
C1369      C1370   1.418       .  A
C1369      C1373   1.445       .  S
C1370      C1371   1.408   1_565  A
C1371      C1372   1.408       .  A
C1371      H1384   1.085       .  S
C1372      C1374   1.443       .  S
C1373      N1377   1.157       .  T
C1374      N1378   1.157       .  T
C1375      N1380   1.157       .  T
C1376      N1379   1.157       .  T
C1385      C1386   1.410       .  A
C1385      C1390   1.399       .  A
C1385      C1399   1.444       .  S
C1386      C1391   1.489       .  S
C1386      C1387   1.405       .  A
C1387      C1388   1.405       .  A
C1387      H1406   1.084       .  S
C1388      C1389   1.415       .  A
C1388      C1400   1.444   1_545  S
C1389      C1390   1.404       .  A
C1390      H1405   1.083       .  S
C1391      C1392   1.402       .  A
C1391      C1396   1.410       .  A
C1392      C1393   1.399       .  A
C1392      H1407   1.086       .  S
C1393      C1394   1.419       .  A
C1393      C1397   1.445       .  S
C1394      C1395   1.410       .  A
C1395      C1396   1.404       .  A
C1395      H1408   1.085       .  S
C1396      C1398   1.443       .  S
C1397      N1401   1.158       .  T
C1398      N1402   1.157       .  T
C1399      N1404   1.157       .  T
C1400      N1403   1.157       .  T
C1409      C1410   1.411       .  A
C1409      C1414   1.408       .  A
C1409      C1423   1.443       .  S
C1410      C1415   1.492       .  S
C1410      C1411   1.400       .  A
C1411      C1412   1.401       .  A
C1411      H1430   1.087       .  S
C1412      C1413   1.420       .  A
C1412      C1424   1.445       .  S
C1413      C1414   1.409       .  A
C1414      H1429   1.086       .  S
C1415      C1416   1.402       .  A
C1415      C1420   1.411       .  A
C1416      C1417   1.403       .  A
C1416      H1431   1.085       .  S
C1417      C1418   1.417       .  A
C1417      C1421   1.444       .  S
C1418      C1419   1.407       .  A
C1419      C1420   1.405       .  A
C1419      H1432   1.085   1_545  S
C1420      C1422   1.443       .  S
C1421      N1425   1.157       .  T
C1422      N1426   1.157       .  T
C1423      N1428   1.157       .  T
C1424      N1427   1.157       .  T
C1433      C1434   1.410       .  A
C1433      C1438   1.404       .  A
C1433      C1447   1.443       .  S
C1434      C1439   1.486       .  S
C1434      C1435   1.399       .  A
C1435      C1436   1.400       .  A
C1435      H1454   1.086       .  S
C1436      C1437   1.419       .  A
C1436      C1448   1.445       .  S
C1437      C1438   1.407       .  A
C1438      H1453   1.086       .  S
C1439      C1440   1.403       .  A
C1439      C1444   1.407       .  A
C1440      C1441   1.406       .  A
C1440      H1455   1.085       .  S
C1441      C1442   1.418       .  A
C1441      C1445   1.443       .  S
C1442      C1443   1.409       .  A
C1443      C1444   1.399       .  A
C1443      H1456   1.085       .  S
C1444      C1446   1.444       .  S
C1445      N1449   1.157       .  T
C1446      N1450   1.157       .  T
C1447      N1452   1.157       .  T
C1448      N1451   1.157       .  T
C1457      C1458   1.408       .  A
C1457      C1462   1.396       .  A
C1457      C1471   1.445       .  S
C1458      C1463   1.491       .  S
C1458      C1459   1.405       .  A
C1459      C1460   1.408       .  A
C1459      H1478   1.085       .  S
C1460      C1461   1.420       .  A
C1460      C1472   1.444       .  S
C1461      C1462   1.411       .  A
C1462      H1477   1.084       .  S
C1463      C1464   1.404       .  A
C1463      C1468   1.410       .  A
C1464      C1465   1.403       .  A
C1464      H1479   1.086       .  S
C1465      C1466   1.416       .  A
C1465      C1469   1.444       .  S
C1466      C1467   1.408       .  A
C1467      C1468   1.402       .  A
C1467      H1480   1.085       .  S
C1468      C1470   1.444       .  S
C1469      N1473   1.157       .  T
C1470      N1474   1.157       .  T
C1471      N1476   1.157       .  T
C1472      N1475   1.158       .  T
