geometry optimzed in LAMMPS
_audit_creation_date              2020-11-30 
_audit_creation_method            'lammps2cif' 
_symmetry_space_group_name_H-M    'P1' 
_symmetry_Int_Tables_number       1 
_symmetry_cell_setting            triclinic 
loop_ 
_symmetry_equiv_pos_as_xyz 
  x,y,z 
_cell_length_a                    35.81726505 
_cell_length_b                    35.1118062689764 
_cell_length_c                    65.92180097702428 
_cell_angle_alpha                 91.66092616144897 
_cell_angle_beta                  90.69435079328859 
_cell_angle_gamma                 95.70507571340914 
loop_ 
_atom_site_label 
_atom_site_type_symbol 
_atom_site_fract_x 
_atom_site_fract_y 
_atom_site_fract_z 
_atom_site_charge 
N1          N  0.33283884  0.26066868  0.64428551    -0.25300
N2          N  0.31794895  0.25753865  0.62578300    -0.33200
C3          C  0.34597498  0.25434108  0.61242589     0.03000
C4          C  0.37994798  0.25550421  0.62317793     0.09000
C5          C  0.37018978  0.25953272  0.64326820    -0.04100
H6          H  0.34185055  0.25130363  0.59616146     0.09700
H7          H  0.38898452  0.26137194  0.65631073     0.10900
Cu8        Cu  0.25941599  0.25765849  0.62062548     0.44200
Cu9        Cu  0.30216942  0.26545145  0.67045944     0.42000
Cu10       Cu  0.20171582  0.26349911  0.66647847     0.43900
N11         N  0.20033580  0.25897639  0.62050025    -0.32700
N12         N  0.17995061  0.26133584  0.63704932    -0.27000
C13         C  0.14353732  0.26189126  0.63168877    -0.03100
C14         C  0.14049936  0.25969203  0.61071334     0.09200
C15         C  0.17706152  0.25783623  0.60419167     0.03000
H16         H  0.12102543  0.26355913  0.64236406     0.10600
H17         H  0.18606448  0.25585061  0.58861935     0.09700
N18         N  0.23072879  0.26560532  0.69403136    -0.34200
N19         N  0.26769066  0.26665499  0.69535416    -0.26300
C20         C  0.27819530  0.26729900  0.71501776    -0.01600
C21         C  0.24632274  0.26663788  0.72655472     0.07000
C22         C  0.21666607  0.26552604  0.71288811     0.05100
H23         H  0.30686009  0.26766465  0.72045721     0.10600
H24         H  0.18712699  0.26434191  0.71634183     0.09100
N25         N  0.24392030  0.17334402  0.87008108    -0.25300
N26         N  0.24376242  0.18927369  0.88848747    -0.33200
C27         C  0.24307314  0.16158308  0.90224610     0.03000
C28         C  0.24267862  0.12651575  0.89191229     0.09000
C29         C  0.24319267  0.13518574  0.87159708    -0.04100
H30         H  0.24245185  0.16674339  0.91847661     0.09700
H31         H  0.24293467  0.11514727  0.85880598     0.10900
Cu32       Cu  0.24343491  0.24795442  0.89366128     0.44200
Cu33       Cu  0.24468333  0.20402162  0.84366944     0.42000
Cu34       Cu  0.24402026  0.30668934  0.84876210     0.43900
N35         N  0.24204088  0.30706090  0.89456833    -0.32700
N36         N  0.24237687  0.32833113  0.87832116    -0.27000
C37         C  0.24114919  0.36518581  0.88422709    -0.03100
C38         C  0.23994727  0.36721333  0.90523783     0.09200
C39         C  0.24053207  0.32985758  0.91122685     0.03000
H40         H  0.24104097  0.38853375  0.87389526     0.10600
H41         H  0.23992636  0.31994232  0.92662041     0.09700
N42         N  0.24457128  0.27738699  0.82100866    -0.34200
N43         N  0.24481703  0.23978975  0.81919870    -0.26300
C44         C  0.24478187  0.22950534  0.79938499    -0.01600
C45         C  0.24444507  0.26218450  0.78830336     0.07000
C46         C  0.24435971  0.29205750  0.80237210     0.05100
H47         H  0.24486428  0.20039686  0.79352643     0.10200
H48         H  0.24404476  0.32214221  0.79933601     0.09100
C49         C  0.04474561  0.26221326  0.42339925     0.05100
C50         C  0.04548168  0.26326000  0.44480790    -0.11000
C51         C  0.01186626  0.25968339  0.45559805     0.02600
C52         C  0.47334334  0.22851834  0.44481363    -0.09600
C53         C  0.47275786  0.22696337  0.42344462     0.05100
C54         C  0.01005129  0.25706354  0.41316218    -0.09000
H55         H  0.07174977  0.26622892  0.45323305     0.10700
H56         H  0.44779232  0.23024450  0.45323093     0.08200
H57         H  0.00926246  0.25588911  0.39669824     0.08100
C58         C  0.46603601  0.24761643  0.58769796     0.05100
C59         C  0.46871806  0.24397654  0.56651490    -0.11000
C60         C  0.00677210  0.26243017  0.55744092     0.02600
C61         C  0.03920669  0.26354320  0.56954809    -0.09600
C62         C  0.03696154  0.26257121  0.59089136     0.05100
C63         C  0.00098880  0.26146305  0.59978775    -0.09000
H64         H  0.44359383  0.24271327  0.55706051     0.10700
H65         H  0.06588014  0.26546596  0.56200482     0.08200
H66         H  0.99921213  0.26116943  0.61613088     0.08100
N67         N  0.24674971  0.17654498  0.14087947    -0.25300
N68         N  0.24200769  0.19709348  0.12471180    -0.33200
C69         C  0.23858674  0.17357810  0.10816586     0.03000
C70         C  0.24135798  0.13648812  0.11413015     0.09000
C71         C  0.24654288  0.13946027  0.13502337    -0.04100
H72         H  0.23436232  0.18281610  0.09286056     0.09700
H73         H  0.24968432  0.11652386  0.14531552     0.10900
Cu74       Cu  0.24012233  0.25621900  0.12574928     0.44200
Cu75       Cu  0.25221398  0.19951540  0.17032121     0.42000
Cu76       Cu  0.24540811  0.30122556  0.17602494     0.43900
N77         N  0.23868511  0.31478789  0.13113136    -0.32700
N78         N  0.24037987  0.33099033  0.14952208    -0.27000
C79         C  0.23896940  0.36892136  0.14796048    -0.03100
C80         C  0.23638662  0.37718178  0.12764732     0.09200
C81         C  0.23624938  0.34209374  0.11736523     0.03000
H82         H  0.24016469  0.38913084  0.16070869     0.10600
H83         H  0.23470328  0.33662753  0.10114126     0.09700
N84         N  0.25081025  0.26578309  0.20035366    -0.34200
N85         N  0.25357099  0.22857375  0.19830011    -0.26300
C86         C  0.25598134  0.21380517  0.21684935    -0.01600
C87         C  0.25466870  0.24317497  0.23114112     0.07000
C88         C  0.25138631  0.27568535  0.22024179     0.05100
H89         H  0.25798476  0.18387035  0.21968622     0.10200
H90         H  0.24914452  0.30433790  0.22628779     0.09100
N91         N  0.18510982  0.26950757  0.37906670    -0.25300
N92         N  0.20592701  0.27645002  0.39569474    -0.33200
C93         C  0.18364592  0.28107937  0.41161720     0.03000
C94         C  0.14690579  0.27655928  0.40481602     0.09000
C95         C  0.14876737  0.26938973  0.38402908    -0.04100
H96         H  0.19345058  0.28563986  0.42717036     0.09700
H97         H  0.12563786  0.26351950  0.37333831     0.10900
Cu98       Cu  0.26298195  0.27413098  0.39678688     0.44200
Cu99       Cu  0.20754658  0.25795775  0.35081364     0.42000
Cu100      Cu  0.30694407  0.24246414  0.35141119     0.43900
N101        N  0.31750497  0.26073958  0.39610511    -0.32700
N102        N  0.33373460  0.24818614  0.37966606    -0.27000
C103        C  0.36858881  0.24019396  0.38468834    -0.03100
C104        C  0.37427209  0.24815222  0.40531631     0.09200
C105        C  0.34136261  0.26116235  0.41197823     0.03000
H106        H  0.38809279  0.22943559  0.37407593     0.10600
H107        H  0.33497772  0.26982926  0.42733014     0.09700
N108        N  0.27396339  0.24131511  0.32515552    -0.34200
N109        N  0.23796998  0.24704413  0.32491752    -0.26300
C110        C  0.22558469  0.24620197  0.30552381    -0.01600
C111        C  0.25513834  0.23960418  0.29307406     0.07000
C112        C  0.28536297  0.23669157  0.30592795     0.05100
H113        H  0.19742017  0.25103348  0.30084515     0.10200
H114        H  0.31378521  0.23256880  0.30164021     0.09100
C115        C  0.24226281  0.04187810  0.92872107     0.05100
C116        C  0.24008178  0.03918719  0.94989286    -0.11000
C117        C  0.23618921  0.50525285  0.95834439     0.02600
C118        C  0.23663482  0.47134376  0.94672879    -0.09600
C119        C  0.23822905  0.47222705  0.92538798     0.05100
C120        C  0.23931179  0.50788291  0.91602712    -0.09000
H121        H  0.23932284  0.06488606  0.95934019     0.10700
H122        H  0.23584299  0.44477258  0.95461884     0.08200
H123        H  0.24053727  0.50823245  0.89967820     0.08100
C124        C  0.24174341  0.03125057  0.09387040     0.05100
C125        C  0.24113266  0.03202496  0.07248649    -0.11000
C126        C  0.23508293  0.49866338  0.05994342     0.02600
C127        C  0.23404737  0.46332769  0.06928257    -0.09600
C128        C  0.23529780  0.46129029  0.09052126     0.05100
C129        C  0.23742542  0.49573416  0.10228810    -0.09000
H130        H  0.24207473  0.05871942  0.06466445     0.10700
H131        H  0.23252660  0.43729621  0.05992396     0.08200
H132        H  0.23865071  0.49531473  0.11864007     0.08100
C133        C  0.23499592  0.50397912  0.98017018    -0.16500
C134        C  0.23440492  0.50279947  0.99843610     0.07500
C135        C  0.23418865  0.50136355  0.01983319     0.09400
C136        C  0.23439536  0.50012414  0.03810467    -0.17400
C137        C  0.23516363  0.41592526  0.11949984    -0.14500
C138        C  0.23507738  0.42260693  0.09946916    -0.29600
H139        H  0.23485483  0.43913025  0.13061493     0.14600
H140        H  0.23524372  0.39836358  0.08889630     0.15100
C141        C  0.24337815  0.06669038  0.10713815    -0.14500
C142        C  0.23900554  0.10198527  0.10050313    -0.29600
H143        H  0.24824058  0.06334932  0.12324803     0.14600
H144        H  0.23336131  0.10646589  0.08462612     0.15100
C145        C  0.25524074  0.23936737  0.27121179    -0.11300
C146        C  0.25517432  0.24045636  0.25290987    -0.12900
C147        C  0.40760451  0.24435123  0.41816853    -0.14500
C148        C  0.43807455  0.22920188  0.41113562    -0.29600
H149        H  0.40692322  0.25529499  0.43368771     0.14600
H150        H  0.43843379  0.21961862  0.39533950     0.15100
C151        C  0.11371242  0.27636687  0.41787318    -0.14500
C152        C  0.07902400  0.26472161  0.41084180    -0.29600
H153        H  0.11854290  0.28526200  0.43363965     0.14600
H154        H  0.07529408  0.25655011  0.39487914     0.15100
C155        C  0.00954636  0.26260273  0.53559945    -0.16500
C156        C  0.01122056  0.26234257  0.51730592     0.07500
C157        C  0.01237277  0.26169212  0.49584502     0.09400
C158        C  0.01260523  0.26090596  0.47751611    -0.17400
C159        C  0.24127622  0.08749112  0.89998022    -0.14500
C160        C  0.24359131  0.08077392  0.91995193    -0.29600
H161        H  0.23814883  0.06408264  0.88885361     0.14600
H162        H  0.24625990  0.10510975  0.93058912     0.15100
C163        C  0.23911384  0.43702791  0.91216148    -0.14500
C164        C  0.23845260  0.40111606  0.91895403    -0.29600
H165        H  0.24062434  0.44108819  0.89592404     0.14600
H166        H  0.23706049  0.39559004  0.93498804     0.15100
C167        C  0.10642872  0.25892090  0.59744474    -0.14500
C168        C  0.07143907  0.26316432  0.60428884    -0.29600
H169        H  0.11115879  0.25435518  0.58142843     0.14600
H170        H  0.06766424  0.26687040  0.62051556     0.15100
C171        C  0.41897097  0.25311417  0.61587830    -0.14500
C172        C  0.42741165  0.24970136  0.59609513    -0.29600
H173        H  0.44100629  0.25444293  0.62734917     0.14600
H174        H  0.40438854  0.24847457  0.58514488     0.15100
C175        C  0.24461080  0.26574381  0.74831003    -0.11300
C176        C  0.24424037  0.26446805  0.76656921    -0.12900
N177        N  0.33197998  0.75662965  0.64280149    -0.25300
N178        N  0.31710808  0.75450309  0.62429078    -0.33200
C179        C  0.34511859  0.75155268  0.61088407     0.03000
C180        C  0.37902101  0.75188184  0.62163039     0.09000
C181        C  0.36925925  0.75514789  0.64174579    -0.04100
H182        H  0.34105919  0.74933427  0.59459275     0.09700
H183        H  0.38801701  0.75628418  0.65478655     0.10900
Cu184      Cu  0.25865655  0.75584623  0.61924133     0.44200
Cu185      Cu  0.30169993  0.76120598  0.66909458     0.42000
Cu186      Cu  0.20199485  0.76420217  0.66535843     0.43900
N187        N  0.19964586  0.75790520  0.61939501    -0.32700
N188        N  0.17964157  0.76110379  0.63603014    -0.27000
C189        C  0.14312157  0.76152825  0.63084863    -0.03100
C190        C  0.13960512  0.75835939  0.60990415     0.09200
C191        C  0.17601765  0.75614739  0.60321375     0.03000
H192        H  0.12086869  0.76378940  0.64162346     0.10600
H193        H  0.18466745  0.75341752  0.58760864     0.09700
N194        N  0.23112128  0.76585974  0.69287700    -0.34200
N195        N  0.26787936  0.76482694  0.69410403    -0.26300
C196        C  0.27856305  0.76556586  0.71374123    -0.01600
C197        C  0.24701098  0.76716531  0.72536974     0.07000
C198        C  0.21735844  0.76726163  0.71177843     0.05100
H199        H  0.30709663  0.76447152  0.71910471     0.10600
H200        H  0.18798687  0.76780481  0.71531855     0.09100
N201        N  0.24524293  0.67328794  0.86848948    -0.25300
N202        N  0.24563652  0.68932318  0.88688872    -0.33200
C203        C  0.24470091  0.66165379  0.90065483     0.03000
C204        C  0.24369078  0.62649764  0.89035204     0.09000
C205        C  0.24412110  0.63509113  0.87002439    -0.04100
H206        H  0.24477520  0.66695689  0.91688919     0.09700
H207        H  0.24352081  0.61499709  0.85724804     0.10900
Cu208      Cu  0.24727631  0.74822620  0.89219287     0.44200
Cu209      Cu  0.24589799  0.70396723  0.84211286     0.42000
Cu210      Cu  0.24880116  0.80744632  0.84779484     0.43900
N211        N  0.24813254  0.80765045  0.89357829    -0.32700
N212        N  0.24848714  0.82924196  0.87745532    -0.27000
C213        C  0.24822416  0.86613817  0.88360799    -0.03100
C214        C  0.24772844  0.86784518  0.90465805     0.09200
C215        C  0.24777091  0.83025927  0.91038899     0.03000
H216        H  0.24831667  0.88976264  0.87343679     0.10600
H217        H  0.24723142  0.82002373  0.92572221     0.09700
N218        N  0.24759682  0.77808320  0.81991620    -0.34200
N219        N  0.24638806  0.74036297  0.81792553    -0.26300
C220        C  0.24537670  0.73028928  0.79807207    -0.01600
C221        C  0.24595165  0.76321427  0.78713702     0.07000
C222        C  0.24741471  0.79301751  0.80133713     0.05100
H223        H  0.24426426  0.70116918  0.79209108     0.10200
H224        H  0.24816853  0.82326102  0.79842658     0.09100
C225        C  0.04311977  0.77022358  0.42355127     0.05100
C226        C  0.04343486  0.77099102  0.44495451    -0.11000
C227        C  0.00975254  0.77054786  0.45557628     0.02600
C228        C  0.46984826  0.71057161  0.44464367    -0.09600
C229        C  0.46863366  0.70984386  0.42326795     0.05100
C230        C  0.00861354  0.76848466  0.41314105    -0.09000
H231        H  0.06935343  0.77124759  0.45354545     0.10700
H232        H  0.44437763  0.71069836  0.45329725     0.08200
H233        H  0.00805068  0.76736155  0.39667720     0.08100
C234        C  0.46530610  0.74184791  0.58657333     0.05100
C235        C  0.46825437  0.73551120  0.56554891    -0.11000
C236        C  0.00559131  0.76410146  0.55718243     0.02600
C237        C  0.03797749  0.76348001  0.56917406    -0.09600
C238        C  0.03577458  0.76134554  0.59048595     0.05100
C239        C  0.99986026  0.76049319  0.59945061    -0.09000
H240        H  0.44324832  0.73317709  0.55596709     0.10700
H241        H  0.06460293  0.76528419  0.56157846     0.08200
H242        H  0.99800774  0.75892865  0.61576054     0.08100
N243        N  0.24432952  0.67549268  0.14121942    -0.25300
N244        N  0.24183715  0.69685403  0.12515145    -0.33200
C245        C  0.23967569  0.67407256  0.10833023     0.03000
C246        C  0.24088212  0.63659906  0.11401094     0.09000
C247        C  0.24385901  0.63857215  0.13502311    -0.04100
H248        H  0.23735613  0.68407520  0.09303801     0.09700
H249        H  0.24535470  0.61508922  0.14516079     0.10900
Cu250      Cu  0.24179253  0.75609206  0.12660341     0.44200
Cu251      Cu  0.24777298  0.69727707  0.17092359     0.42000
Cu252      Cu  0.25267261  0.80056844  0.17663703     0.43900
N253        N  0.24488289  0.81496530  0.13201742    -0.32700
N254        N  0.24958652  0.83119577  0.15033227    -0.27000
C255        C  0.25114204  0.86943443  0.14879356    -0.03100
C256        C  0.24705642  0.87779142  0.12856745     0.09200
C257        C  0.24316025  0.84248174  0.11832784     0.03000
H258        H  0.25475152  0.88970151  0.16150701     0.10600
H259        H  0.23961181  0.83697888  0.10216704     0.09700
N260        N  0.25198747  0.76418070  0.20089233    -0.34200
N261        N  0.25007833  0.72642409  0.19889374    -0.26300
C262        C  0.24951666  0.71141518  0.21747707    -0.01600
C263        C  0.25114111  0.74122071  0.23170361     0.07000
C264        C  0.25267935  0.77420461  0.22075390     0.05100
H265        H  0.24794381  0.68112423  0.22037374     0.10200
H266        H  0.25405658  0.80334475  0.22674045     0.09100
N267        N  0.18372615  0.76529619  0.38008070    -0.25300
N268        N  0.20443276  0.76959154  0.39685468    -0.33200
C269        C  0.18234217  0.77497507  0.41276873     0.03000
C270        C  0.14581911  0.77379644  0.40577251     0.09000
C271        C  0.14763250  0.76770795  0.38490673    -0.04100
H272        H  0.19203485  0.77809352  0.42839533     0.09700
H273        H  0.12460662  0.76453983  0.37403402     0.10900
Cu274      Cu  0.26079305  0.76338460  0.39780449     0.44200
Cu275      Cu  0.20609496  0.75456380  0.35177933     0.42000
Cu276      Cu  0.30480734  0.73536950  0.35156952     0.43900
N277        N  0.31420564  0.74703092  0.39682733    -0.32700
N278        N  0.33052180  0.73594124  0.38009629    -0.27000
C279        C  0.36478844  0.72606904  0.38501866    -0.03100
C280        C  0.36995658  0.73129535  0.40587451     0.09200
C281        C  0.33738134  0.74462808  0.41277153     0.03000
H282        H  0.38442063  0.71633057  0.37416432     0.10600
H283        H  0.33092067  0.75207293  0.42828931     0.09700
N284        N  0.27177212  0.73798703  0.32552182    -0.34200
N285        N  0.23605308  0.74478021  0.32563745    -0.26300
C286        C  0.22328945  0.74524281  0.30636398    -0.01600
C287        C  0.25229889  0.73839297  0.29361110     0.07000
C288        C  0.28261603  0.73399312  0.30615189     0.05100
H289        H  0.19514785  0.75072954  0.30199614     0.10200
H290        H  0.31061284  0.72876997  0.30157124     0.09100
C291        C  0.23892704  0.54230680  0.92761945     0.05100
C292        C  0.23730599  0.54041466  0.94884363    -0.11000
C293        C  0.23894314  0.00365905  0.95904798     0.02600
C294        C  0.23987461  0.97016471  0.94708625    -0.09600
C295        C  0.24255891  0.97192566  0.92579271     0.05100
C296        C  0.24374630  0.00795731  0.91682558    -0.09000
H297        H  0.23704220  0.56645866  0.95806997     0.10700
H298        H  0.23844485  0.94318319  0.95463216     0.08200
H299        H  0.24631189  0.00906040  0.90054174     0.08100
C300        C  0.23828870  0.53154684  0.09310431     0.05100
C301        C  0.23727707  0.53259895  0.07174472    -0.11000
C302        C  0.23970346  0.99797814  0.06079205     0.02600
C303        C  0.23944657  0.96285797  0.07028386    -0.09600
C304        C  0.24064921  0.96115221  0.09153317     0.05100
C305        C  0.24149316  0.99561106  0.10319926    -0.09000
H306        H  0.23851431  0.55936874  0.06400920     0.10700
H307        H  0.23850871  0.93672393  0.06103807     0.08200
H308        H  0.24150627  0.99517956  0.11957484     0.08100
C309        C  0.23754481  0.00173227  0.98087766    -0.16500
C310        C  0.23729163  0.00063259  0.99916902     0.07500
C311        C  0.23781376  0.99972032  0.02061393     0.09400
C312        C  0.23863179  0.99901625  0.03891716    -0.17400
C313        C  0.24724724  0.91664834  0.12036664    -0.14500
C314        C  0.24039717  0.92266109  0.10063295    -0.29600
H315        H  0.25347821  0.94045104  0.13106514     0.14600
H316        H  0.23486089  0.89797813  0.09036637     0.15100
C317        C  0.24071724  0.56678667  0.10654375    -0.14500
C318        C  0.23879860  0.60261717  0.10004669    -0.29600
H319        H  0.24387266  0.56280620  0.12271813     0.14600
H320        H  0.23523163  0.60795575  0.08409833     0.15100
C321        C  0.25161037  0.73800879  0.27176439    -0.11300
C322        C  0.25124578  0.73875429  0.25346387    -0.12900
C323        C  0.40305419  0.72614815  0.41864753    -0.14500
C324        C  0.43347640  0.71142570  0.41129300    -0.29600
H325        H  0.40252122  0.73632490  0.43431365     0.14600
H326        H  0.43368217  0.70255714  0.39538375     0.15100
C327        C  0.11269514  0.77624653  0.41865088    -0.14500
C328        C  0.07752935  0.76953966  0.41120797    -0.29600
H329        H  0.11797366  0.78324824  0.43460068     0.14600
H330        H  0.07351191  0.76316653  0.39506961     0.15100
C331        C  0.00826317  0.76633315  0.53541169    -0.16500
C332        C  0.00954410  0.76811122  0.51716850     0.07500
C333        C  0.01018175  0.76980950  0.49576550     0.09400
C334        C  0.01020216  0.77061783  0.47746993    -0.17400
C335        C  0.24236225  0.58754622  0.89851968    -0.14500
C336        C  0.24032732  0.58091445  0.91852471    -0.29600
H337        H  0.24293328  0.56424181  0.88747229     0.14600
H338        H  0.23965349  0.60525431  0.92900062     0.15100
C339        C  0.24390234  0.93721378  0.91219466    -0.14500
C340        C  0.24692026  0.90154114  0.91866368    -0.29600
H341        H  0.24248952  0.94143410  0.89596673     0.14600
H342        H  0.24879356  0.89606098  0.93469009     0.15100
C343        C  0.10529319  0.75736842  0.59679110    -0.14500
C344        C  0.07029289  0.76106152  0.60379048    -0.29600
H345        H  0.10989424  0.75330784  0.58072421     0.14600
H346        H  0.06661532  0.76410893  0.62005961     0.15100
C347        C  0.41802488  0.74929635  0.61438962    -0.14500
C348        C  0.42662283  0.74505624  0.59467247    -0.29600
H349        H  0.43991624  0.75062469  0.62593705     0.14600
H350        H  0.40373034  0.74347347  0.58362664     0.15100
C351        C  0.24548808  0.76684629  0.74714411    -0.11300
C352        C  0.24536253  0.76571907  0.76541167    -0.12900
N353        N  0.83216617  0.25829964  0.64374044    -0.25300
N354        N  0.81787221  0.25831799  0.62513139    -0.33200
C355        C  0.84640615  0.25830023  0.61183962     0.03000
C356        C  0.88010572  0.25821346  0.62270496     0.09000
C357        C  0.86965428  0.25816919  0.64280734    -0.04100
H358        H  0.84281373  0.25834625  0.59553112     0.09700
H359        H  0.88813355  0.25827159  0.65592345     0.10900
Cu360      Cu  0.75947892  0.25806394  0.61944177     0.44200
Cu361      Cu  0.80094803  0.25905098  0.67007273     0.42000
Cu362      Cu  0.70119595  0.25791580  0.66508130     0.43900
N363        N  0.70012212  0.25622944  0.61910653    -0.32700
N364        N  0.67955073  0.25594838  0.63567731    -0.27000
C365        C  0.64293269  0.25423715  0.63038848    -0.03100
C366        C  0.63989662  0.25343890  0.60942564     0.09200
C367        C  0.67673772  0.25476216  0.60281861     0.03000
H368        H  0.62030143  0.25367761  0.64112458     0.10600
H369        H  0.68582200  0.25454922  0.58722838     0.09700
N370        N  0.72885698  0.26002442  0.69299819    -0.34200
N371        N  0.76570154  0.26044162  0.69481467    -0.26300
C372        C  0.77524143  0.26157777  0.71465310    -0.01600
C373        C  0.74282822  0.26191742  0.72575954     0.07000
C374        C  0.71391110  0.26086818  0.71163761     0.05100
H375        H  0.80361839  0.26186433  0.72052034     0.10600
H376        H  0.68424636  0.26048339  0.71464400     0.09100
N377        N  0.75244759  0.17240168  0.86937732    -0.25300
N378        N  0.75705235  0.18879973  0.88765903    -0.33200
C379        C  0.75907583  0.16137806  0.90140879     0.03000
C380        C  0.75553628  0.12599718  0.89121445     0.09000
C381        C  0.75141090  0.13422485  0.87097862    -0.04100
H382        H  0.76230103  0.16693633  0.91758128     0.09700
H383        H  0.74747942  0.11385283  0.85832506     0.10900
Cu384      Cu  0.75892783  0.24776360  0.89278792     0.44200
Cu385      Cu  0.74674168  0.20243006  0.84304716     0.42000
Cu386      Cu  0.74640572  0.30515059  0.84818323     0.43900
N387        N  0.75721533  0.30690001  0.89384940    -0.32700
N388        N  0.75225971  0.32765588  0.87777590    -0.27000
C389        C  0.75120586  0.36446884  0.88389081    -0.03100
C390        C  0.75573303  0.36701256  0.90483876     0.09200
C391        C  0.75956981  0.32999890  0.91055940     0.03000
H392        H  0.74719620  0.38745688  0.87376570     0.10600
H393        H  0.76320882  0.32042206  0.92584607     0.09700
N394        N  0.74166703  0.27522760  0.82036844    -0.34200
N395        N  0.74176372  0.23760175  0.81860022    -0.26300
C396        C  0.73965871  0.22698345  0.79881021    -0.01600
C397        C  0.73814587  0.25943168  0.78763973     0.07000
C398        C  0.73951207  0.28955203  0.80168977     0.05100
H399        H  0.74014361  0.19789299  0.79299771     0.10200
H400        H  0.73984390  0.31967290  0.79858281     0.09100
C401        C  0.54031270  0.22194085  0.42371011     0.05100
C402        C  0.54058222  0.22445545  0.44510008    -0.11000
C403        C  0.50715317  0.22751387  0.45557469     0.02600
C404        C  0.97739395  0.25461424  0.44510322    -0.09600
C405        C  0.97634319  0.25284800  0.42374280     0.05100
C406        C  0.50624176  0.22318184  0.41316045    -0.09000
H407        H  0.56639317  0.22461196  0.45377408     0.10700
H408        H  0.95173440  0.25254691  0.45367002     0.08200
H409        H  0.50584650  0.22174641  0.39669916     0.08100
C410        C  0.96789617  0.26066927  0.58760931     0.05100
C411        C  0.97155292  0.26096937  0.56642153    -0.11000
C412        C  0.50334237  0.24197381  0.55725928     0.02600
C413        C  0.53617257  0.24353413  0.56905561    -0.09600
C414        C  0.53501872  0.24755074  0.59039106     0.05100
C415        C  0.49955838  0.24936730  0.59959166    -0.09000
H416        H  0.94673964  0.26020052  0.55675778     0.10700
H417        H  0.56221660  0.24131796  0.56125995     0.08200
H418        H  0.49851429  0.25230902  0.61593033     0.08100
N419        N  0.75149772  0.17498259  0.14207409    -0.25300
N420        N  0.74906157  0.19631117  0.12599514    -0.33200
C421        C  0.74772973  0.17358675  0.10916406     0.03000
C422        C  0.74941161  0.13617193  0.11484610     0.09000
C423        C  0.75179960  0.13812692  0.13588263    -0.04100
H424        H  0.74546918  0.18356256  0.09386103     0.09700
H425        H  0.75334919  0.11466897  0.14602918     0.10900
Cu426      Cu  0.74696122  0.25532793  0.12756434     0.44200
Cu427      Cu  0.75366149  0.19694159  0.17172939     0.42000
Cu428      Cu  0.74744845  0.29920895  0.17795098     0.43900
N429        N  0.74439886  0.31366120  0.13304653    -0.32700
N430        N  0.74433831  0.32960676  0.15146213    -0.27000
C431        C  0.74291051  0.36756236  0.14987655    -0.03100
C432        C  0.74211087  0.37605489  0.12951885     0.09200
C433        C  0.74305884  0.34108101  0.11925989     0.03000
H434        H  0.74296024  0.38764229  0.16263858     0.10600
H435        H  0.74314749  0.33576843  0.10303042     0.09700
N436        N  0.75196415  0.26289489  0.20204676    -0.34200
N437        N  0.75438012  0.22564631  0.19976512    -0.26300
C438        C  0.75644844  0.21039004  0.21820044    -0.01600
C439        C  0.75525937  0.23943193  0.23267197     0.07000
C440        C  0.75243102  0.27230482  0.22200159     0.05100
H441        H  0.75821529  0.18034399  0.22083530     0.10200
H442        H  0.75045648  0.30086800  0.22824196     0.09100
N443        N  0.68076973  0.21266221  0.38051601    -0.25300
N444        N  0.69999853  0.20669688  0.39715744    -0.33200
C445        C  0.67694286  0.20520086  0.41307830     0.03000
C446        C  0.64137917  0.21051276  0.40622388     0.09000
C447        C  0.64473342  0.21512080  0.38544528    -0.04100
H448        H  0.68567234  0.20146539  0.42860214     0.09700
H449        H  0.62297097  0.22047415  0.37468861     0.10900
Cu450      Cu  0.75706556  0.20449627  0.39806649     0.44200
Cu451      Cu  0.70520054  0.21887180  0.35215910     0.42000
Cu452      Cu  0.80737446  0.22774106  0.35238583     0.43900
N453        N  0.81450066  0.21368079  0.39702652    -0.32700
N454        N  0.83314249  0.22345177  0.38049636    -0.27000
C455        C  0.86976904  0.23068254  0.38536361    -0.03100
C456        C  0.87412942  0.22518190  0.40599425     0.09200
C457        C  0.83857554  0.21423334  0.41281772     0.03000
H458        H  0.89128686  0.23970039  0.37467291     0.10600
H459        H  0.83055942  0.20838301  0.42827598     0.09700
N460        N  0.77446924  0.22834672  0.32626674    -0.34200
N461        N  0.73731939  0.22491830  0.32612013    -0.26300
C462        C  0.72482614  0.22601473  0.30681358    -0.01600
C463        C  0.75558126  0.23032881  0.29435282     0.07000
C464        C  0.78656218  0.23172409  0.30709016     0.05100
H465        H  0.69556578  0.22390208  0.30223121     0.10200
H466        H  0.81573392  0.23493092  0.30278139     0.09100
C467        C  0.75716117  0.04178357  0.92821885     0.05100
C468        C  0.75582025  0.03950988  0.94943450    -0.11000
C469        C  0.74556311  0.50225454  0.95929947     0.02600
C470        C  0.74605215  0.46871121  0.94731761    -0.09600
C471        C  0.74794336  0.47044209  0.92600813     0.05100
C472        C  0.74861054  0.50637589  0.91700318    -0.09000
H473        H  0.75645925  0.06547409  0.95879831     0.10700
H474        H  0.74457031  0.44160615  0.95478680     0.08200
H475        H  0.75050407  0.50734056  0.90068612     0.08100
C476        C  0.74935403  0.03144507  0.09377564     0.05100
C477        C  0.75038283  0.03274681  0.07241732    -0.11000
C478        C  0.74410586  0.49655711  0.06110573     0.02600
C479        C  0.74246489  0.46143930  0.07071240    -0.09600
C480        C  0.74296493  0.45985284  0.09198731     0.05100
C481        C  0.74493775  0.49455176  0.10353111    -0.09000
H482        H  0.75266884  0.05967843  0.06477791     0.10700
H483        H  0.74101081  0.43519519  0.06152738     0.08200
H484        H  0.74552306  0.49442873  0.11990612     0.08100
C485        C  0.74448004  0.50034581  0.98114813    -0.16500
C486        C  0.74402663  0.49919876  0.99944401     0.07500
C487        C  0.74386601  0.49820535  0.02089791     0.09400
C488        C  0.74391596  0.49747178  0.03920982    -0.17400
C489        C  0.74166941  0.41485941  0.12125616    -0.14500
C490        C  0.74207789  0.42130665  0.10118579    -0.29600
H491        H  0.74136784  0.43825234  0.13227143     0.14600
H492        H  0.74209966  0.39688087  0.09072593     0.15100
C493        C  0.75085912  0.06653242  0.10729831    -0.14500
C494        C  0.74812655  0.10225443  0.10085030    -0.29600
H495        H  0.75390730  0.06250705  0.12347926     0.14600
H496        H  0.74441437  0.10748855  0.08488243     0.15100
C497        C  0.75547274  0.23322164  0.27260613    -0.11300
C498        C  0.75550158  0.23594652  0.25438603    -0.12900
C499        C  0.90840562  0.23101779  0.41875979    -0.14500
C500        C  0.94094898  0.24725565  0.41166582    -0.29600
H501        H  0.90645373  0.22152534  0.43424858     0.14600
H502        H  0.94227325  0.25563597  0.39594872     0.15100
C503        C  0.60812625  0.21221988  0.41910359    -0.14500
C504        C  0.57466752  0.21938743  0.41150448    -0.29600
H505        H  0.61179997  0.20725933  0.43510691     0.14600
H506        H  0.57198203  0.22325979  0.39529244     0.15100
C507        C  0.50515057  0.23846846  0.53543945    -0.16500
C508        C  0.50630922  0.23574484  0.51716980     0.07500
C509        C  0.50721288  0.23267425  0.49575349     0.09400
C510        C  0.50750916  0.23017769  0.47745787    -0.17400
C511        C  0.75461536  0.08705436  0.89940538    -0.14500
C512        C  0.75928950  0.08059659  0.91928434    -0.29600
H513        H  0.74911558  0.06344523  0.88851986     0.14600
H514        H  0.76396886  0.10507547  0.92975625     0.15100
C515        C  0.74854828  0.43565883  0.91244634    -0.14500
C516        C  0.75574630  0.40092266  0.91877058    -0.29600
H517        H  0.74333821  0.43913519  0.89637964     0.14600
H518        H  0.76197666  0.39659636  0.93460945     0.15100
C519        C  0.60554158  0.25162950  0.59630881    -0.14500
C520        C  0.57001626  0.24958433  0.60347583    -0.29600
H521        H  0.61059497  0.25233994  0.58019351     0.14600
H522        H  0.56622259  0.24963397  0.61978486     0.15100
C523        C  0.91951103  0.25852666  0.61550996    -0.14500
C524        C  0.92877049  0.25974897  0.59576751    -0.29600
H525        H  0.94116990  0.25796738  0.62707521     0.14600
H526        H  0.90612308  0.26022583  0.58470052     0.15100
C527        C  0.73988668  0.26208435  0.74754528    -0.11300
C528        C  0.73845302  0.26145924  0.76583733    -0.12900
N529        N  0.83173724  0.76464833  0.64342379    -0.25300
N530        N  0.81718353  0.76156237  0.62483562    -0.33200
C531        C  0.84565740  0.76068302  0.61156048     0.03000
C532        C  0.87956320  0.76330857  0.62244349     0.09000
C533        C  0.86931713  0.76581091  0.64252068    -0.04100
H534        H  0.84186911  0.75806944  0.59526199     0.09700
H535        H  0.88793611  0.76795452  0.65564189     0.10900
Cu536      Cu  0.75851860  0.75798052  0.61928768     0.44200
Cu537      Cu  0.80060151  0.76560302  0.66966522     0.42000
Cu538      Cu  0.70025495  0.75300946  0.66504009     0.43900
N539        N  0.69907372  0.75424289  0.61905354    -0.32700
N540        N  0.67843308  0.75215361  0.63560442    -0.27000
C541        C  0.64177676  0.74997980  0.63027548    -0.03100
C542        C  0.63883685  0.75078832  0.60932055     0.09200
C543        C  0.67574628  0.75350922  0.60277230     0.03000
H544        H  0.61905010  0.74808400  0.64096749     0.10600
H545        H  0.68493196  0.75478324  0.58721096     0.09700
N546        N  0.72860342  0.75706787  0.69287864    -0.34200
N547        N  0.76561219  0.76222262  0.69446202    -0.26300
C548        C  0.77573165  0.76406953  0.71421114    -0.01600
C549        C  0.74354987  0.75990553  0.72555179     0.07000
C550        C  0.71412857  0.75546910  0.71164466     0.05100
H551        H  0.80439249  0.76795685  0.71985441     0.10600
H552        H  0.68447645  0.75141449  0.71488552     0.09100
N553        N  0.74851514  0.67106891  0.86973240    -0.25300
N554        N  0.75141693  0.68754526  0.88804282    -0.33200
C555        C  0.75109707  0.66012091  0.90195202     0.03000
C556        C  0.74775421  0.62467918  0.89182246     0.09000
C557        C  0.74619562  0.63285678  0.87146506    -0.04100
H558        H  0.75284414  0.66573172  0.91816321     0.09700
H559        H  0.74344367  0.61245076  0.85879642     0.10900
Cu560      Cu  0.75450316  0.74669230  0.89289200     0.44200
Cu561      Cu  0.74718652  0.70110374  0.84315809     0.42000
Cu562      Cu  0.74881144  0.80440933  0.84790859     0.43900
N563        N  0.75448937  0.80608284  0.89378354    -0.32700
N564        N  0.75217953  0.82709244  0.87755442    -0.27000
C565        C  0.75218896  0.86412626  0.88356245    -0.03100
C566        C  0.75464841  0.86652784  0.90460555     0.09200
C567        C  0.75607454  0.82918947  0.91048065     0.03000
H568        H  0.75048383  0.88739045  0.87330433     0.10600
H569        H  0.75792738  0.81946314  0.92585516     0.09700
N570        N  0.74547794  0.77405158  0.82016858    -0.34200
N571        N  0.74500376  0.73634440  0.81856146    -0.26300
C572        C  0.74302793  0.72543416  0.79881155    -0.01600
C573        C  0.74215137  0.75776382  0.78749427     0.07000
C574        C  0.74380102  0.78812171  0.80140907     0.05100
H575        H  0.74252202  0.69615150  0.79314673     0.10200
H576        H  0.74406819  0.81818343  0.79816840     0.09100
C577        C  0.53668281  0.70891291  0.42278696     0.05100
C578        C  0.53757697  0.71056360  0.44419857    -0.11000
C579        C  0.50423481  0.71116595  0.45506577     0.02600
C580        C  0.97551930  0.76892654  0.44494175    -0.09600
C581        C  0.97472901  0.76727625  0.42357549     0.05100
C582        C  0.50206253  0.70842747  0.41260974    -0.09000
H583        H  0.56382843  0.71222407  0.45259326     0.10700
H584        H  0.94984496  0.76908132  0.45341203     0.08200
H585        H  0.50120057  0.70782071  0.39614937     0.08100
C586        C  0.96686049  0.76140982  0.58736116     0.05100
C587        C  0.97047448  0.76295078  0.56621859    -0.11000
C588        C  0.50298473  0.73203134  0.55662976     0.02600
C589        C  0.53565791  0.73490073  0.56865119    -0.09600
C590        C  0.53419794  0.74185895  0.58980549     0.05100
C591        C  0.49866629  0.74501402  0.59864715    -0.09000
H592        H  0.94571886  0.76360031  0.55663858     0.10700
H593        H  0.56185582  0.73113801  0.56126398     0.08200
H594        H  0.49748767  0.75015021  0.61485064     0.08100
N595        N  0.75310349  0.67554849  0.14115507    -0.25300
N596        N  0.75026364  0.69647617  0.12494508    -0.33200
C597        C  0.74797520  0.67322716  0.10828767     0.03000
C598        C  0.74941547  0.63591008  0.11423149     0.09000
C599        C  0.75269666  0.63848721  0.13522501    -0.04100
H600        H  0.74527645  0.68278177  0.09292638     0.09700
H601        H  0.75440196  0.61530241  0.14553524     0.10900
Cu602      Cu  0.74925814  0.75573927  0.12608393     0.44200
Cu603      Cu  0.75650405  0.69797179  0.17072805     0.42000
Cu604      Cu  0.75505696  0.80050230  0.17633378     0.43900
N605        N  0.74940829  0.81450644  0.13149125    -0.32700
N606        N  0.75187670  0.83068743  0.14988341    -0.27000
C607        C  0.75191436  0.86879444  0.14836026    -0.03100
C608        C  0.74924287  0.87717447  0.12806936     0.09200
C609        C  0.74770398  0.84199234  0.11776015     0.03000
H610        H  0.75389425  0.88899784  0.16112494     0.10600
H611        H  0.74593660  0.83660885  0.10153114     0.09700
N612        N  0.75637679  0.76451062  0.20067908    -0.34200
N613        N  0.75701478  0.72697748  0.19868271    -0.26300
C614        C  0.75688388  0.71195322  0.21725092    -0.01600
C615        C  0.75609446  0.74150294  0.23147692     0.07000
C616        C  0.75580494  0.77438212  0.22054017     0.05100
H617        H  0.75690776  0.68177248  0.22013275     0.10200
H618        H  0.75485357  0.80328721  0.22652607     0.09100
N619        N  0.67798894  0.71499546  0.37895424    -0.25300
N620        N  0.69798030  0.71190892  0.39569099    -0.33200
C621        C  0.67494926  0.70680209  0.41148400     0.03000
C622        C  0.63857249  0.70686704  0.40449483     0.09000
C623        C  0.64139019  0.71206811  0.38372748    -0.04100
H624        H  0.68414652  0.70432670  0.42704336     0.09700
H625        H  0.61880647  0.71403946  0.37289870     0.10900
Cu626      Cu  0.75552262  0.71791416  0.39700033     0.44200
Cu627      Cu  0.70239418  0.72393987  0.35075021     0.42000
Cu628      Cu  0.80527843  0.74169802  0.35165014     0.43900
N629        N  0.81259173  0.73111119  0.39649292    -0.32700
N630        N  0.83124736  0.74077338  0.37995969    -0.27000
C631        C  0.86775550  0.74901907  0.38494767    -0.03100
C632        C  0.87195425  0.74423098  0.40566257     0.09200
C633        C  0.83646181  0.73277266  0.41240599     0.03000
H634        H  0.88939680  0.75759738  0.37424057     0.10600
H635        H  0.82844611  0.72645079  0.42781459     0.09700
N636        N  0.77223862  0.73796623  0.32539531    -0.34200
N637        N  0.73515596  0.73150890  0.32500257    -0.26300
C638        C  0.72298535  0.73019355  0.30555782    -0.01600
C639        C  0.75384768  0.73606736  0.29327567     0.07000
C640        C  0.78455468  0.74091525  0.30624684     0.05100
H641        H  0.69386556  0.72522141  0.30075718     0.10200
H642        H  0.81372858  0.74606972  0.30211086     0.09100
C643        C  0.74769539  0.54036933  0.92890027     0.05100
C644        C  0.74640160  0.53777238  0.95011332    -0.11000
C645        C  0.75328642  0.00405065  0.95873117     0.02600
C646        C  0.75217831  0.97020060  0.94685220    -0.09600
C647        C  0.75415245  0.97151886  0.92550810     0.05100
C648        C  0.75665912  0.00750519  0.91641054    -0.09000
H649        H  0.74601163  0.56352234  0.95956045     0.10700
H650        H  0.74953350  0.94325977  0.95447859     0.08200
H651        H  0.75863827  0.00831371  0.90008799     0.08100
C652        C  0.74644839  0.53019146  0.09409332     0.05100
C653        C  0.74620805  0.53075629  0.07270415    -0.11000
C654        C  0.74880632  0.99889117  0.06053488     0.02600
C655        C  0.74677536  0.96345434  0.06984426    -0.09600
C656        C  0.74638140  0.96122909  0.09108104     0.05100
C657        C  0.74732703  0.99552058  0.10289295    -0.09000
H658        H  0.74794401  0.55737708  0.06479230     0.10700
H659        H  0.74583423  0.93747479  0.06046853     0.08200
H660        H  0.74620658  0.99482138  0.11924110     0.08100
C661        C  0.75180129  0.00254695  0.98059256    -0.16500
C662        C  0.75087265  0.00183003  0.99889630     0.07500
C663        C  0.75006798  0.00117787  0.02035571     0.09400
C664        C  0.74950110  0.00040368  0.03866293    -0.17400
C665        C  0.74937137  0.91607319  0.11993933    -0.14500
C666        C  0.74502144  0.92247768  0.10002968    -0.29600
H667        H  0.75379252  0.93963567  0.13091713     0.14600
H668        H  0.74108558  0.89797241  0.08953562     0.15100
C669        C  0.74877876  0.56578515  0.10729663    -0.14500
C670        C  0.74725863  0.60150856  0.10052342    -0.29600
H671        H  0.75154465  0.56217566  0.12352928     0.14600
H672        H  0.74394662  0.60643928  0.08450297     0.15100
C673        C  0.75413111  0.73716164  0.27146735    -0.11300
C674        C  0.75492554  0.73870823  0.25320506    -0.12900
C675        C  0.90620344  0.74935467  0.41847077    -0.14500
C676        C  0.93938119  0.76403629  0.41141188    -0.29600
H677        H  0.90378366  0.73993503  0.43396031     0.14600
H678        H  0.94127071  0.77217374  0.39566543     0.15100
C679        C  0.60508270  0.70396255  0.41737632    -0.14500
C680        C  0.57093071  0.70969782  0.41022024    -0.29600
H681        H  0.60932284  0.69755050  0.43316157     0.14600
H682        H  0.56770694  0.71534341  0.39421831     0.15100
C683        C  0.50496298  0.72577580  0.53492676    -0.16500
C684        C  0.50574986  0.72124266  0.51670415     0.07500
C685        C  0.50584641  0.71676384  0.49529047     0.09400
C686        C  0.50536502  0.71372263  0.47698258    -0.17400
C687        C  0.74583491  0.58575219  0.90008534    -0.14500
C688        C  0.74895994  0.57922768  0.92005465    -0.29600
H689        H  0.74159433  0.56221089  0.88908438     0.14600
H690        H  0.75244668  0.60366800  0.93060923     0.15100
C691        C  0.75317935  0.93638487  0.91199125    -0.14500
C692        C  0.75557815  0.90062759  0.91850893    -0.29600
H693        H  0.75080947  0.94038684  0.89577038     0.14600
H694        H  0.75870833  0.89546897  0.93452059     0.15100
C695        C  0.60455232  0.74897612  0.59611870    -0.14500
C696        C  0.56893018  0.74492881  0.60311722    -0.29600
H697        H  0.60959493  0.75130711  0.58003319     0.14600
H698        H  0.56485400  0.74397529  0.61938786     0.15100
C699        C  0.91892966  0.76325887  0.61528800    -0.14500
C700        C  0.92781493  0.76071947  0.59553908    -0.29600
H701        H  0.94088750  0.76585073  0.62683690     0.14600
H702        H  0.90494939  0.75869075  0.58446748     0.15100
C703        C  0.74150675  0.75977519  0.74736347    -0.11300
C704        C  0.74123119  0.75931923  0.76567847    -0.12900
loop_ 
_geom_bond_atom_site_label_1 
_geom_bond_atom_site_label_2 
_geom_bond_distance 
_geom_bond_site_symmetry_2 
_ccdc_geom_bond_type 
N1            N2   1.323       .  A
N1            C5   1.345       .  A
N1           Cu9   2.068       .  S
N2            C3   1.354       .  A
N2           Cu8   2.120       .  S
C3            C4   1.397       .  A
C3            H6   1.081       .  S
C4            C5   1.381       .  A
C4          C171   1.493       .  S
C5            H7   1.082       .  S
Cu8          N11   2.121       .  S
Cu9          N19   2.068       .  S
Cu10         N12   2.079       .  S
Cu10         N18   2.077       .  S
N11          N12   1.325       .  A
N11          C15   1.350       .  A
N12          C13   1.349       .  A
C13          C14   1.385       .  A
C13          H16   1.081       .  S
C14          C15   1.390       .  A
C14         C167   1.490       .  S
C15          H17   1.082       .  S
N18          N19   1.322       .  A
N18          C22   1.347       .  A
N19          C20   1.344       .  A
C20          C21   1.378       .  A
C20          H23   1.082       .  S
C21          C22   1.381       .  A
C21         C175   1.437       .  S
C22          H24   1.082       .  S
N25          N26   1.322       .  A
N25          C29   1.344       .  A
N25         Cu33   2.073       .  S
N26          C27   1.347       .  A
N26         Cu32   2.080       .  S
C27          C28   1.389       .  A
C27          H30   1.081       .  S
C28          C29   1.382       .  A
C28         C159   1.481       .  S
C29          H31   1.082       .  S
Cu32         N35   2.080       .  S
Cu33         N43   2.073       .  S
Cu34         N36   2.075       .  S
Cu34         N42   2.074       .  S
N35          N36   1.323       .  A
N35          C39   1.345       .  A
N36          C37   1.346       .  A
C37          C38   1.386       .  A
C37          H40   1.081       .  S
C38          C39   1.383       .  A
C38         C164   1.479       .  S
C39          H41   1.082       .  S
N42          N43   1.323       .  A
N42          C46   1.346       .  A
N43          C44   1.345       .  A
C44          C45   1.379       .  A
C44          H47   1.082       .  S
C45          C46   1.380       .  A
C45         C176   1.437       .  S
C46          H48   1.082       .  S
C49          C50   1.411       .  A
C49          C54   1.400       .  A
C49         C152   1.486       .  S
C50          C51   1.403       .  A
C50          H55   1.081       .  S
C51         C404   1.401   1_455  A
C51         C158   1.444       .  S
C52          C53   1.408       .  A
C52         C403   1.400       .  A
C52          H56   1.082       .  S
C53         C406   1.401       .  A
C53         C148   1.485       .  S
C54         C405   1.399   1_455  A
C54          H57   1.085       .  S
C58          C59   1.404       .  A
C58         C415   1.421       .  A
C58         C172   1.504       .  S
C59         C412   1.396       .  A
C59          H64   1.085       .  S
C60          C61   1.398       .  A
C60         C411   1.397   1_455  A
C60         C155   1.445       .  S
C61          C62   1.411       .  A
C61          H65   1.079       .  S
C62          C63   1.420       .  A
C62         C168   1.508       .  S
C63         C410   1.421   1_455  A
C63          H66   1.080   1_455  S
N67          N68   1.323       .  A
N67          C71   1.347       .  A
N67         Cu75   2.080       .  S
N68          C69   1.346       .  A
N68         Cu74   2.083       .  S
C69          C70   1.384       .  A
C69          H72   1.082       .  S
C70          C71   1.387       .  A
C70         C142   1.482       .  S
C71          H73   1.081       .  S
Cu74         N77   2.082       .  S
Cu75         N85   2.079       .  S
Cu76         N78   2.077       .  S
Cu76         N84   2.077       .  S
N77          N78   1.322       .  A
N77          C81   1.347       .  A
N78          C79   1.345       .  A
C79          C80   1.382       .  A
C79          H82   1.082       .  S
C80          C81   1.388       .  A
C80         C137   1.481       .  S
C81          H83   1.081       .  S
N84          N85   1.323       .  A
N84          C88   1.346       .  A
N85          C86   1.347       .  A
C86          C87   1.381       .  A
C86          H89   1.082       .  S
C87          C88   1.380       .  A
C87         C146   1.441       .  S
C88          H90   1.082       .  S
N91          N92   1.321       .  A
N91          C95   1.346       .  A
N91         Cu99   2.082       .  S
N92          C93   1.342       .  A
N92         Cu98   2.054       .  S
C93          C94   1.378       .  A
C93          H96   1.082       .  S
C94          C95   1.390       .  A
C94         C151   1.476       .  S
C95          H97   1.081       .  S
Cu98        N101   2.054       .  S
Cu99        N109   2.083       .  S
Cu100       N102   2.080       .  S
Cu100       N108   2.081       .  S
N101        N102   1.321       .  A
N101        C105   1.342       .  A
N102        C103   1.346       .  A
C103        C104   1.389       .  A
C103        H106   1.081       .  S
C104        C105   1.378       .  A
C104        C147   1.475       .  S
C105        H107   1.082       .  S
N108        N109   1.324       .  A
N108        C112   1.347       .  A
N109        C110   1.347       .  A
C110        C111   1.381       .  A
C110        H113   1.082       .  S
C111        C112   1.380       .  A
C111        C145   1.441       .  S
C112        H114   1.082       .  S
C115        C116   1.404       .  A
C115        C296   1.413       .  A
C115        C160   1.495       .  S
C116        C293   1.399       .  A
C116        H121   1.084       .  S
C117        C118   1.398       .  A
C117        C292   1.398       .  A
C117        C133   1.442       .  S
C118        C119   1.410       .  A
C118        H122   1.079       .  S
C119        C120   1.409       .  A
C119        C163   1.495       .  S
C120        C291   1.412       .  A
C120        H123   1.080       .  S
C124        C125   1.411       .  A
C124        C305   1.410   1_545  A
C124        C141   1.496       .  S
C125        C302   1.400   1_545  A
C125        H130   1.081       .  S
C126        C127   1.398       .  A
C126        C301   1.399       .  A
C126        C136   1.442       .  S
C127        C128   1.404       .  A
C127        H131   1.084       .  S
C128        C129   1.413       .  A
C128        C138   1.496       .  S
C129        C300   1.409       .  A
C129        H132   1.079       .  S
C133        C134   1.206       .  T
C134        C135   1.413   1_556  S
C135        C136   1.206       .  T
C137        C138   1.348       .  D
C137        H139   1.081       .  S
C138        H140   1.085       .  S
C141        C142   1.349       .  D
C141        H143   1.086       .  S
C142        H144   1.083       .  S
C145        C146   1.208       .  T
C147        C148   1.343       .  D
C147        H149   1.084       .  S
C148        H150   1.086       .  S
C151        C152   1.342       .  D
C151        H153   1.083       .  S
C152        H154   1.086       .  S
C155        C156   1.208       .  T
C156        C157   1.415       .  S
C157        C158   1.208       .  T
C159        C160   1.347       .  D
C159        H161   1.082       .  S
C160        H162   1.086       .  S
C163        C164   1.348       .  D
C163        H165   1.085       .  S
C164        H166   1.081       .  S
C167        C168   1.358       .  D
C167        H169   1.081       .  S
C168        H170   1.086       .  S
C171        C172   1.347       .  D
C171        H173   1.083       .  S
C172        H174   1.086       .  S
C175        C176   1.206       .  T
N177        N178   1.323       .  A
N177        C181   1.344       .  A
N177       Cu185   2.066       .  S
N178        C179   1.355       .  A
N178       Cu184   2.121       .  S
C179        C180   1.397       .  A
C179        H182   1.082       .  S
C180        C181   1.380       .  A
C180        C347   1.492       .  S
C181        H183   1.082       .  S
Cu184       N187   2.122       .  S
Cu185       N195   2.066       .  S
Cu186       N188   2.079       .  S
Cu186       N194   2.078       .  S
N187        N188   1.325       .  A
N187        C191   1.350       .  A
N188        C189   1.350       .  A
C189        C190   1.385       .  A
C189        H192   1.081       .  S
C190        C191   1.391       .  A
C190        C343   1.491       .  S
C191        H193   1.082       .  S
N194        N195   1.322       .  A
N194        C198   1.347       .  A
N195        C196   1.344       .  A
C196        C197   1.378       .  A
C196        H199   1.082       .  S
C197        C198   1.382       .  A
C197        C351   1.437       .  S
C198        H200   1.082       .  S
N201        N202   1.322       .  A
N201        C205   1.345       .  A
N201       Cu209   2.071       .  S
N202        C203   1.347       .  A
N202       Cu208   2.082       .  S
C203        C204   1.389       .  A
C203        H206   1.081       .  S
C204        C205   1.382       .  A
C204        C335   1.481       .  S
C205        H207   1.082       .  S
Cu208       N211   2.083       .  S
Cu209       N219   2.071       .  S
Cu210       N212   2.080       .  S
Cu210       N218   2.079       .  S
N211        N212   1.323       .  A
N211        C215   1.345       .  A
N212        C213   1.347       .  A
C213        C214   1.388       .  A
C213        H216   1.081       .  S
C214        C215   1.383       .  A
C214        C340   1.482       .  S
C215        H217   1.082       .  S
N218        N219   1.323       .  A
N218        C222   1.346       .  A
N219        C220   1.345       .  A
C220        C221   1.379       .  A
C220        H223   1.082       .  S
C221        C222   1.380       .  A
C221        C352   1.437       .  S
C222        H224   1.082       .  S
C225        C226   1.410       .  A
C225        C230   1.401       .  A
C225        C328   1.487       .  S
C226        C227   1.401       .  A
C226        H231   1.081       .  S
C227        C580   1.400   1_455  A
C227        C334   1.443       .  S
C228        C579   1.401       .  A
C228        C229   1.409       .  A
C228        H232   1.082       .  S
C229        C582   1.400       .  A
C229        C324   1.485       .  S
C230        C581   1.400   1_455  A
C230        H233   1.085       .  S
C234        C235   1.404       .  A
C234        C591   1.421       .  A
C234        C348   1.504       .  S
C235        C588   1.397       .  A
C235        H240   1.085       .  S
C236        C587   1.396   1_455  A
C236        C237   1.398       .  A
C236        C331   1.443       .  S
C237        C238   1.412       .  A
C237        H241   1.080       .  S
C238        C239   1.420   1_455  A
C238        C344   1.508       .  S
C239        C586   1.421       .  A
C239        H242   1.081       .  S
N243        N244   1.323       .  A
N243        C247   1.346       .  A
N243       Cu251   2.079       .  S
N244        C245   1.345       .  A
N244       Cu250   2.080       .  S
C245        C246   1.383       .  A
C245        H248   1.082       .  S
C246        C247   1.387       .  A
C246        C318   1.481       .  S
C247        H249   1.081       .  S
Cu250       N253   2.079       .  S
Cu251       N261   2.079       .  S
Cu252       N254   2.074       .  S
Cu252       N260   2.074       .  S
N253        N254   1.322       .  A
N253        C257   1.346       .  A
N254        C255   1.345       .  A
C255        C256   1.383       .  A
C255        H258   1.082       .  S
C256        C257   1.388       .  A
C256        C313   1.481       .  S
C257        H259   1.081       .  S
N260        N261   1.323       .  A
N260        C264   1.345       .  A
N261        C262   1.347       .  A
C262        C263   1.381       .  A
C262        H265   1.082       .  S
C263        C264   1.379       .  A
C263        C322   1.440       .  S
C264        H266   1.082       .  S
N267        N268   1.321       .  A
N267        C271   1.345       .  A
N267       Cu275   2.078       .  S
N268        C269   1.342       .  A
N268       Cu274   2.052       .  S
C269        C270   1.378       .  A
C269        H272   1.082       .  S
C270        C271   1.389       .  A
C270        C327   1.475       .  S
C271        H273   1.081       .  S
Cu274       N277   2.053       .  S
Cu275       N285   2.079       .  S
Cu276       N278   2.083       .  S
Cu276       N284   2.083       .  S
N277        N278   1.321       .  A
N277        C281   1.341       .  A
N278        C279   1.347       .  A
C279        C280   1.389       .  A
C279        H282   1.081       .  S
C280        C281   1.377       .  A
C280        C323   1.475       .  S
C281        H283   1.082       .  S
N284        N285   1.325       .  A
N284        C288   1.347       .  A
N285        C286   1.346       .  A
C286        C287   1.380       .  A
C286        H289   1.082       .  S
C287        C288   1.380       .  A
C287        C321   1.440       .  S
C288        H290   1.082       .  S
C291        C292   1.404       .  A
C291        C336   1.495       .  S
C292        H297   1.084       .  S
C293        C294   1.400   1_545  A
C293        C309   1.444       .  S
C294        C295   1.411       .  A
C294        H298   1.080       .  S
C295        C296   1.409   1_565  A
C295        C339   1.497       .  S
C296        H299   1.080       .  S
C300        C301   1.410       .  A
C300        C317   1.496       .  S
C301        H306   1.080       .  S
C302        C303   1.398       .  A
C302        C312   1.444       .  S
C303        C304   1.404       .  A
C303        H307   1.084       .  S
C304        C305   1.412       .  A
C304        C314   1.494       .  S
C305        H308   1.080       .  S
C309        C310   1.208       .  T
C310        C311   1.415   1_546  S
C311        C312   1.208       .  T
C313        C314   1.347       .  D
C313        H315   1.082       .  S
C314        H316   1.085       .  S
C317        C318   1.349       .  D
C317        H319   1.085       .  S
C318        H320   1.082       .  S
C321        C322   1.207       .  T
C323        C324   1.342       .  D
C323        H325   1.084       .  S
C324        H326   1.086       .  S
C327        C328   1.342       .  D
C327        H329   1.083       .  S
C328        H330   1.086       .  S
C331        C332   1.207       .  T
C332        C333   1.414       .  S
C333        C334   1.207       .  T
C335        C336   1.347       .  D
C335        H337   1.081       .  S
C336        H338   1.085       .  S
C339        C340   1.349       .  D
C339        H341   1.085       .  S
C340        H342   1.082       .  S
C343        C344   1.358       .  D
C343        H345   1.081       .  S
C344        H346   1.086       .  S
C347        C348   1.347       .  D
C347        H349   1.083       .  S
C348        H350   1.086       .  S
C351        C352   1.206       .  T
N353        N354   1.324       .  A
N353        C357   1.345       .  A
N353       Cu361   2.077       .  S
N354        C355   1.354       .  A
N354       Cu360   2.119       .  S
C355        C356   1.396       .  A
C355        H358   1.081       .  S
C356        C357   1.381       .  A
C356        C523   1.494       .  S
C357        H359   1.082       .  S
Cu360       N363   2.120       .  S
Cu361       N371   2.077       .  S
Cu362       N364   2.076       .  S
Cu362       N370   2.075       .  S
N363        N364   1.325       .  A
N363        C367   1.350       .  A
N364        C365   1.348       .  A
C365        C366   1.384       .  A
C365        H368   1.082       .  S
C366        C367   1.391       .  A
C366        C519   1.490       .  S
C367        H369   1.082       .  S
N370        N371   1.322       .  A
N370        C374   1.347       .  A
N371        C372   1.346       .  A
C372        C373   1.381       .  A
C372        H375   1.082       .  S
C373        C374   1.381       .  A
C373        C527   1.441       .  S
C374        H376   1.082       .  S
N377        N378   1.322       .  A
N377        C381   1.345       .  A
N377       Cu385   2.075       .  S
N378        C379   1.348       .  A
N378       Cu384   2.082       .  S
C379        C380   1.389       .  A
C379        H382   1.081       .  S
C380        C381   1.382       .  A
C380        C511   1.482       .  S
C381        H383   1.082       .  S
Cu384       N387   2.083       .  S
Cu385       N395   2.075       .  S
Cu386       N388   2.084       .  S
Cu386       N394   2.083       .  S
N387        N388   1.323       .  A
N387        C391   1.346       .  A
N388        C389   1.347       .  A
C389        C390   1.388       .  A
C389        H392   1.081       .  S
C390        C391   1.383       .  A
C390        C516   1.482       .  S
C391        H393   1.082       .  S
N394        N395   1.323       .  A
N394        C398   1.348       .  A
N395        C396   1.346       .  A
C396        C397   1.380       .  A
C396        H399   1.082       .  S
C397        C398   1.382       .  A
C397        C528   1.441       .  S
C398        H400   1.082       .  S
C401        C402   1.410       .  A
C401        C406   1.402       .  A
C401        C504   1.487       .  S
C402        C403   1.401       .  A
C402        H407   1.081       .  S
C403        C510   1.443       .  S
C404        C405   1.408       .  A
C404        H408   1.082       .  S
C405        C500   1.482       .  S
C406        H409   1.085       .  S
C410        C411   1.405       .  A
C410        C524   1.505       .  S
C411        H416   1.085       .  S
C412        C413   1.397       .  A
C412        C507   1.443       .  S
C413        C414   1.411       .  A
C413        H417   1.079       .  S
C414        C415   1.420       .  A
C414        C520   1.508       .  S
C415        H418   1.080       .  S
N419        N420   1.322       .  A
N419        C423   1.347       .  A
N419       Cu427   2.078       .  S
N420        C421   1.345       .  A
N420       Cu426   2.081       .  S
C421        C422   1.383       .  A
C421        H424   1.082       .  S
C422        C423   1.388       .  A
C422        C494   1.482       .  S
C423        H425   1.081       .  S
Cu426       N429   2.081       .  S
Cu427       N437   2.078       .  S
Cu428       N430   2.080       .  S
Cu428       N436   2.080       .  S
N429        N430   1.322       .  A
N429        C433   1.347       .  A
N430        C431   1.346       .  A
C431        C432   1.384       .  A
C431        H434   1.082       .  S
C432        C433   1.388       .  A
C432        C489   1.483       .  S
C433        H435   1.081       .  S
N436        N437   1.324       .  A
N436        C440   1.346       .  A
N437        C438   1.346       .  A
C438        C439   1.380       .  A
C438        H441   1.082       .  S
C439        C440   1.381       .  A
C439        C498   1.440       .  S
C440        H442   1.082       .  S
N443        N444   1.321       .  A
N443        C447   1.345       .  A
N443       Cu451   2.082       .  S
N444        C445   1.342       .  A
N444       Cu450   2.053       .  S
C445        C446   1.378       .  A
C445        H448   1.082       .  S
C446        C447   1.389       .  A
C446        C503   1.476       .  S
C447        H449   1.081       .  S
Cu450       N453   2.053       .  S
Cu451       N461   2.082       .  S
Cu452       N454   2.076       .  S
Cu452       N460   2.077       .  S
N453        N454   1.321       .  A
N453        C457   1.342       .  A
N454        C455   1.344       .  A
C455        C456   1.388       .  A
C455        H458   1.081       .  S
C456        C457   1.378       .  A
C456        C499   1.474       .  S
C457        H459   1.082       .  S
N460        N461   1.324       .  A
N460        C464   1.346       .  A
N461        C462   1.347       .  A
C462        C463   1.381       .  A
C462        H465   1.082       .  S
C463        C464   1.379       .  A
C463        C497   1.440       .  S
C464        H466   1.082       .  S
C467        C468   1.404       .  A
C467        C648   1.413       .  A
C467        C512   1.496       .  S
C468        C645   1.399       .  A
C468        H473   1.084       .  S
C469        C644   1.400       .  A
C469        C470   1.401       .  A
C469        C485   1.445       .  S
C470        C471   1.410       .  A
C470        H474   1.081       .  S
C471        C472   1.408       .  A
C471        C515   1.495       .  S
C472        C643   1.412       .  A
C472        H475   1.080       .  S
C476        C477   1.411       .  A
C476        C657   1.409   1_545  A
C476        C493   1.496       .  S
C477        C654   1.401   1_545  A
C477        H482   1.081       .  S
C478        C653   1.400       .  A
C478        C479   1.399       .  A
C478        C488   1.445       .  S
C479        C480   1.405       .  A
C479        H483   1.084       .  S
C480        C481   1.413       .  A
C480        C490   1.497       .  S
C481        C652   1.410       .  A
C481        H484   1.080       .  S
C485        C486   1.208       .  T
C486        C487   1.416   1_556  S
C487        C488   1.208       .  T
C489        C490   1.349       .  D
C489        H491   1.081       .  S
C490        H492   1.085       .  S
C493        C494   1.348       .  D
C493        H495   1.086       .  S
C494        H496   1.083       .  S
C497        C498   1.208       .  T
C499        C500   1.341       .  D
C499        H501   1.084       .  S
C500        H502   1.086       .  S
C503        C504   1.343       .  D
C503        H505   1.083       .  S
C504        H506   1.086       .  S
C507        C508   1.207       .  T
C508        C509   1.414       .  S
C509        C510   1.207       .  T
C511        C512   1.348       .  D
C511        H513   1.082       .  S
C512        H514   1.085       .  S
C515        C516   1.348       .  D
C515        H517   1.086       .  S
C516        H518   1.083       .  S
C519        C520   1.359       .  D
C519        H521   1.080       .  S
C520        H522   1.085       .  S
C523        C524   1.348       .  D
C523        H525   1.083       .  S
C524        H526   1.086       .  S
C527        C528   1.208       .  T
N529        N530   1.323       .  A
N529        C533   1.345       .  A
N529       Cu537   2.071       .  S
N530        C531   1.354       .  A
N530       Cu536   2.119       .  S
C531        C532   1.397       .  A
C531        H534   1.081       .  S
C532        C533   1.380       .  A
C532        C699   1.492       .  S
C533        H535   1.082       .  S
Cu536       N539   2.120       .  S
Cu537       N547   2.071       .  S
Cu538       N540   2.081       .  S
Cu538       N546   2.081       .  S
N539        N540   1.325       .  A
N539        C543   1.350       .  A
N540        C541   1.349       .  A
C541        C542   1.385       .  A
C541        H544   1.082       .  S
C542        C543   1.391       .  A
C542        C695   1.492       .  S
C543        H545   1.082       .  S
N546        N547   1.322       .  A
N546        C550   1.348       .  A
N547        C548   1.345       .  A
C548        C549   1.379       .  A
C548        H551   1.082       .  S
C549        C550   1.382       .  A
C549        C703   1.441       .  S
C550        H552   1.082       .  S
N553        N554   1.322       .  A
N553        C557   1.344       .  A
N553       Cu561   2.073       .  S
N554        C555   1.348       .  A
N554       Cu560   2.084       .  S
C555        C556   1.389       .  A
C555        H558   1.081       .  S
C556        C557   1.382       .  A
C556        C687   1.482       .  S
C557        H559   1.082       .  S
Cu560       N563   2.084       .  S
Cu561       N571   2.073       .  S
Cu562       N564   2.086       .  S
Cu562       N570   2.086       .  S
N563        N564   1.323       .  A
N563        C567   1.346       .  A
N564        C565   1.348       .  A
C565        C566   1.389       .  A
C565        H568   1.081       .  S
C566        C567   1.383       .  A
C566        C692   1.484       .  S
C567        H569   1.082       .  S
N570        N571   1.324       .  A
N570        C574   1.348       .  A
N571        C572   1.345       .  A
C572        C573   1.379       .  A
C572        H575   1.082       .  S
C573        C574   1.382       .  A
C573        C704   1.441       .  S
C574        H576   1.082       .  S
C577        C578   1.411       .  A
C577        C582   1.401       .  A
C577        C680   1.487       .  S
C578        C579   1.402       .  A
C578        H583   1.081       .  S
C579        C686   1.445       .  S
C580        C581   1.408       .  A
C580        H584   1.082       .  S
C581        C676   1.483       .  S
C582        H585   1.085       .  S
C586        C587   1.403       .  A
C586        C700   1.503       .  S
C587        H592   1.085       .  S
C588        C589   1.399       .  A
C588        C683   1.445       .  S
C589        C590   1.411       .  A
C589        H593   1.080       .  S
C590        C591   1.419       .  A
C590        C696   1.507       .  S
C591        H594   1.080       .  S
N595        N596   1.323       .  A
N595        C599   1.346       .  A
N595       Cu603   2.079       .  S
N596        C597   1.346       .  A
N596       Cu602   2.084       .  S
C597        C598   1.384       .  A
C597        H600   1.082       .  S
C598        C599   1.387       .  A
C598        C670   1.483       .  S
C599        H601   1.081       .  S
Cu602       N605   2.083       .  S
Cu603       N613   2.079       .  S
Cu604       N606   2.074       .  S
Cu604       N612   2.074       .  S
N605        N606   1.322       .  A
N605        C609   1.347       .  A
N606        C607   1.345       .  A
C607        C608   1.382       .  A
C607        H610   1.082       .  S
C608        C609   1.388       .  A
C608        C665   1.481       .  S
C609        H611   1.081       .  S
N612        N613   1.323       .  A
N612        C616   1.346       .  A
N613        C614   1.347       .  A
C614        C615   1.381       .  A
C614        H617   1.082       .  S
C615        C616   1.380       .  A
C615        C674   1.439       .  S
C616        H618   1.082       .  S
N619        N620   1.321       .  A
N619        C623   1.346       .  A
N619       Cu627   2.083       .  S
N620        C621   1.341       .  A
N620       Cu626   2.051       .  S
C621        C622   1.377       .  A
C621        H624   1.082       .  S
C622        C623   1.390       .  A
C622        C679   1.475       .  S
C623        H625   1.081       .  S
Cu626       N629   2.051       .  S
Cu627       N637   2.083       .  S
Cu628       N630   2.078       .  S
Cu628       N636   2.078       .  S
N629        N630   1.320       .  A
N629        C633   1.341       .  A
N630        C631   1.346       .  A
C631        C632   1.389       .  A
C631        H634   1.081       .  S
C632        C633   1.378       .  A
C632        C675   1.474       .  S
C633        H635   1.082       .  S
N636        N637   1.325       .  A
N636        C640   1.346       .  A
N637        C638   1.347       .  A
C638        C639   1.381       .  A
C638        H641   1.082       .  S
C639        C640   1.379       .  A
C639        C673   1.439       .  S
C640        H642   1.082       .  S
C643        C644   1.405       .  A
C643        C688   1.496       .  S
C644        H649   1.084       .  S
C645        C646   1.401   1_545  A
C645        C661   1.445       .  S
C646        C647   1.412       .  A
C646        H650   1.080       .  S
C647        C648   1.410   1_565  A
C647        C691   1.498       .  S
C648        H651   1.080       .  S
C652        C653   1.411       .  A
C652        C669   1.497       .  S
C653        H658   1.080       .  S
C654        C655   1.399       .  A
C654        C664   1.445   1_565  S
C655        C656   1.405       .  A
C655        H659   1.084       .  S
C656        C657   1.412       .  A
C656        C666   1.495       .  S
C657        H660   1.080       .  S
C661        C662   1.208       .  T
C662        C663   1.416   1_556  S
C663        C664   1.208       .  T
C665        C666   1.348       .  D
C665        H667   1.082       .  S
C666        H668   1.085       .  S
C669        C670   1.349       .  D
C669        H671   1.086       .  S
C670        H672   1.082       .  S
C673        C674   1.207       .  T
C675        C676   1.342       .  D
C675        H677   1.084       .  S
C676        H678   1.086       .  S
C679        C680   1.342       .  D
C679        H681   1.083       .  S
C680        H682   1.086       .  S
C683        C684   1.208       .  T
C684        C685   1.416       .  S
C685        C686   1.208       .  T
C687        C688   1.348       .  D
C687        H689   1.082       .  S
C688        H690   1.085       .  S
C691        C692   1.349       .  D
C691        H693   1.086       .  S
C692        H694   1.082       .  S
C695        C696   1.358       .  D
C695        H697   1.082       .  S
C696        H698   1.085       .  S
C699        C700   1.347       .  D
C699        H701   1.083       .  S
C700        H702   1.086       .  S
C703        C704   1.208       .  T
