geometry optimzed in LAMMPS
_audit_creation_date              2020-11-30 
_audit_creation_method            'lammps2cif' 
_symmetry_space_group_name_H-M    'P1' 
_symmetry_Int_Tables_number       1 
_symmetry_cell_setting            triclinic 
loop_ 
_symmetry_equiv_pos_as_xyz 
  x,y,z 
_cell_length_a                    19.89134238 
_cell_length_b                    19.51787557016599 
_cell_length_c                    41.76632286042084 
_cell_angle_alpha                 88.99041612477572 
_cell_angle_beta                  88.46140926636794 
_cell_angle_gamma                 89.1193916901018 
loop_ 
_atom_site_label 
_atom_site_type_symbol 
_atom_site_fract_x 
_atom_site_fract_y 
_atom_site_fract_z 
_atom_site_charge 
N1          N  0.33924579  0.97768155  0.26508804    -0.01500
C2          C  0.32562095  0.02419973  0.24133815     0.01100
C3          C  0.31019284  0.08678139  0.25495956    -0.21800
C4          C  0.30628201  0.07614662  0.28752142    -0.22000
C5          C  0.32096445  0.00760092  0.29325753     0.01000
H6          H  0.29022965  0.13152437  0.24268263     0.14800
H7          H  0.28435379  0.11213800  0.30444293     0.14800
N8          N  0.37498780  0.91428806  0.26151399    -0.01500
C9          C  0.40210464  0.87506489  0.28542514     0.01100
C10         C  0.42133971  0.81193226  0.27344142    -0.21800
C11         C  0.41018244  0.81432658  0.24112203    -0.22000
C12         C  0.38507164  0.87904064  0.23386309     0.01000
H13         H  0.44960723  0.77210390  0.28571738     0.14800
H14         H  0.42958917  0.77724349  0.22407692     0.14800
N15         N  0.92081477  0.44688909  0.26887854    -0.01500
C16         C  0.96074229  0.43156930  0.24280608     0.01100
C17         C  0.02608937  0.42085396  0.25235370    -0.21800
C18         C  0.02516694  0.42433887  0.28523749    -0.22000
C19         C  0.95926892  0.43679903  0.29513255     0.01000
H20         H  0.06778969  0.40226059  0.23762945     0.14800
H21         H  0.06598833  0.40771200  0.30037767     0.14800
N22         N  0.85329593  0.47247664  0.26855750    -0.01500
C23         C  0.81003502  0.47842844  0.29432079     0.01100
C24         C  0.74521471  0.48525188  0.28345951    -0.21800
C25         C  0.74970611  0.49135710  0.25065056    -0.22000
C26         C  0.81724408  0.48715116  0.24198179     0.01000
H27         H  0.70090353  0.49828926  0.29786266     0.14800
H28         H  0.70918453  0.50884624  0.23563516     0.14800
O29         O  0.83044792  0.09913860  0.05504729    -0.78100
O30         O  0.79284802  0.97091588  0.43766030    -0.78200
O31         O  0.93925569  0.07961027  0.48477923    -0.78200
O32         O  0.72449445  0.89548550  0.04387009    -0.78100
O33         O  0.83018757  0.07387092  0.47701701    -0.78200
O34         O  0.72784733  0.00477205  0.05179027    -0.78100
O35         O  0.73365498  0.94387034  0.48142105    -0.78100
O36         O  0.94038350  0.09150236  0.04872469    -0.78200
C37         C  0.88791917  0.12483892  0.05812175     1.11600
C38         C  0.73638446  0.95824560  0.45089324     1.11400
C39         C  0.88506510  0.10634692  0.47430719     1.11600
C40         C  0.69572895  0.94951569  0.05383194     1.11500
O41         O  0.81642542  0.90405150  0.08365979    -0.78100
O42         O  0.92373553  0.97614907  0.45167093    -0.78200
O43         O  0.97709545  0.94729327  0.05528592    -0.78100
O44         O  0.76846195  0.81316426  0.49639012    -0.78100
O45         O  0.85055371  0.86584425  0.46964496    -0.78200
O46         O  0.91087878  0.00089330  0.08961852    -0.78100
O47         O  0.85755296  0.84189764  0.04369731    -0.78100
O48         O  0.98310268  0.93561753  0.49049471    -0.78200
Co49       Co  0.82190499  0.00144222  0.06695965     1.51500
Co50       Co  0.83658669  0.97245799  0.47679429     1.51700
Co51       Co  0.95487583  0.00941238  0.01974910     1.51600
Co52       Co  0.80265192  0.89455263  0.01269502     1.51500
O53         O  0.85898967  0.97544284  0.02281858    -1.40100
C54         C  0.84469789  0.84909496  0.07344931     1.11500
C55         C  0.97724255  0.94718738  0.46092596     1.11600
C56         C  0.96676021  0.97123844  0.08277757     1.11500
C57         C  0.81217711  0.81307230  0.47382359     1.11500
C58         C  0.88519451  0.68407922  0.41465533     0.14700
C59         C  0.82719828  0.64975109  0.40541491     0.01600
C60         C  0.76512142  0.66672887  0.42045164     0.16600
C61         C  0.76099916  0.71751497  0.44378535     0.26000
C62         C  0.81860604  0.75369157  0.45209868    -0.40300
C63         C  0.88085219  0.73594851  0.43748615     0.33100
C64         C  0.83038525  0.60108965  0.37819215     0.01700
F65         F  0.70763124  0.63706454  0.41119914    -0.12600
F66         F  0.93759651  0.76898625  0.44521567    -0.13100
C67         C  0.80288813  0.53503138  0.38101080     0.16600
C68         C  0.79980467  0.49295146  0.35411828     0.26000
C69         C  0.82588878  0.51524450  0.32411126    -0.40300
C70         C  0.85470850  0.58056850  0.32166782     0.33000
C71         C  0.85683693  0.62289527  0.34824863     0.14700
F72         F  0.77745098  0.51195386  0.40962147    -0.12600
F73         F  0.87474352  0.60669254  0.29283153    -0.13100
F74         F  0.76933520  0.43133973  0.35710227    -0.15400
F75         F  0.88020157  0.68754557  0.34405336    -0.14000
F76         F  0.94612068  0.66804514  0.40113980    -0.14000
F77         F  0.69972021  0.73424353  0.45676657    -0.15400
C78         C  0.90732575  0.61870773  0.18883090     0.14700
C79         C  0.86809419  0.61803755  0.16150107     0.01600
C80         C  0.82063252  0.56627102  0.15844158     0.16600
C81         C  0.80859576  0.51928751  0.18363494     0.26000
C82         C  0.84335458  0.52376765  0.21249088    -0.40300
C83         C  0.89544294  0.57199642  0.21404113     0.33100
C84         C  0.86798290  0.67792646  0.13930694     0.01700
F85         F  0.78219698  0.56468681  0.13210228    -0.12600
F86         F  0.93267237  0.57730403  0.24050160    -0.13100
C87         C  0.89743487  0.67491810  0.10845541     0.16600
C88         C  0.89227998  0.73128691  0.08722469     0.26000
C89         C  0.85692353  0.79138747  0.09654334    -0.40300
C90         C  0.83006197  0.79460971  0.12815597     0.33000
C91         C  0.83543676  0.73847866  0.14912282     0.14700
F92         F  0.93080119  0.61732191  0.09889486    -0.12600
F93         F  0.79655424  0.85129922  0.13878459    -0.13100
F94         F  0.92151952  0.72669652  0.05758055    -0.15400
F95         F  0.80673907  0.74242699  0.17892902    -0.14000
F96         F  0.95426296  0.66776904  0.19198473    -0.14000
F97         F  0.76024549  0.47170292  0.18051742    -0.15400
C98         C  0.95771709  0.25358698  0.42463716     0.14700
C99         C  0.89990886  0.28314762  0.41130970     0.01600
C100        C  0.83636373  0.25980059  0.42187408     0.16600
C101        C  0.83087611  0.20459273  0.44369219     0.26000
C102        C  0.88903383  0.17193939  0.45556857    -0.40300
C103        C  0.95248941  0.19915544  0.44667881     0.33100
C104        C  0.90669364  0.32993270  0.38300642     0.01700
F105        F  0.77957598  0.28860444  0.40989062    -0.12600
F106        F  0.01036880  0.17058065  0.45761685    -0.13100
C107        C  0.88127730  0.30944067  0.35372998     0.16600
C108        C  0.89511238  0.34686511  0.32567033     0.26000
C109        C  0.93464262  0.40594662  0.32598949    -0.40300
C110        C  0.95936083  0.42738066  0.35538313     0.33000
C111        C  0.94503373  0.38996295  0.38374959     0.14700
F112        F  0.84723246  0.24990860  0.35180633    -0.12600
F113        F  0.99888126  0.48332962  0.35640900    -0.13100
F114        F  0.87405991  0.32179106  0.29778738    -0.15400
F115        F  0.97037183  0.41094891  0.41173266    -0.14000
F116        F  0.01983873  0.27370503  0.41439361    -0.14000
F117        F  0.76869857  0.18162340  0.45213348    -0.15400
C118        C  0.84376344  0.27051649  0.11495237     0.14700
C119        C  0.90724460  0.28660278  0.12657170     0.01600
C120        C  0.96470401  0.25559554  0.11237964     0.16600
C121        C  0.95877879  0.20761707  0.08804857     0.26000
C122        C  0.89488140  0.18756196  0.07790413    -0.40300
C123        C  0.83753108  0.22153009  0.09104059     0.33100
C124        C  0.91353750  0.33090920  0.15512998     0.01700
F125        F  0.02668440  0.26812904  0.12361165    -0.12600
F126        F  0.77485013  0.20546554  0.08182133    -0.13100
C127        C  0.87924341  0.31408905  0.18402674     0.16600
C128        C  0.89044175  0.35054274  0.21189019     0.26000
C129        C  0.93784799  0.40336351  0.21195435    -0.40300
C130        C  0.97022767  0.42203634  0.18278154     0.33000
C131        C  0.95739743  0.38692198  0.15456712     0.14700
F132        F  0.83787089  0.25937266  0.18587934    -0.12600
F133        F  0.01502527  0.47384551  0.18173607    -0.13100
F134        F  0.85724221  0.33125386  0.23914627    -0.15400
F135        F  0.98889753  0.40672372  0.12677476    -0.14000
F136        F  0.78732185  0.30085322  0.12748405    -0.14000
F137        F  0.01588063  0.17758732  0.07606051    -0.15400
C138        C  0.62732748  0.95915715  0.37791967     0.14700
C139        C  0.56271840  0.94783313  0.39116533     0.01600
C140        C  0.55435388  0.94342176  0.42472155     0.16600
C141        C  0.61013826  0.94895582  0.44453321     0.26000
C142        C  0.67517323  0.95923474  0.43104084    -0.40300
C143        C  0.68241466  0.96553222  0.39742342     0.33100
C144        C  0.50654558  0.93700785  0.36903323     0.01700
F145        F  0.49240110  0.93348984  0.43828131    -0.12600
F146        F  0.74350515  0.97523485  0.38289160    -0.13100
C147        C  0.47254072  0.87436099  0.36914603     0.16600
C148        C  0.43369163  0.85682846  0.34303249     0.26000
C149        C  0.42989844  0.90059269  0.31586002    -0.40300
C150        C  0.46144734  0.96471755  0.31671925     0.33000
C151        C  0.49653635  0.98377577  0.34358350     0.14700
F152        F  0.48147799  0.82765264  0.39318499    -0.12600
F153        F  0.46336547  0.00717653  0.29069245    -0.13100
F154        F  0.40332963  0.79497838  0.34344045    -0.15400
F155        F  0.52609349  0.04605527  0.34351148    -0.14000
F156        F  0.63798498  0.96093053  0.34564994    -0.14000
F157        F  0.60047170  0.94335763  0.47677027    -0.15400
C158        C  0.41334504  0.90040917  0.14439488     0.14700
C159        C  0.47119556  0.94109856  0.14332532     0.01600
C160        C  0.49228676  0.97082456  0.17166558     0.16600
C161        C  0.45987797  0.95546059  0.20096403     0.26000
C162        C  0.40518141  0.91058519  0.20250328    -0.40300
C163        C  0.38071368  0.88502056  0.17382930     0.33100
C164        C  0.51763495  0.94171057  0.11486468     0.01700
F165        F  0.54883682  0.00895808  0.17146429    -0.11900
F166        F  0.32772709  0.84196042  0.17462454    -0.13100
C167        C  0.53510023  0.00336439  0.09907617     0.16600
C168        C  0.59049861  0.00552129  0.07748488     0.26000
C169        C  0.62967073  0.94598856  0.07150706    -0.40300
C170        C  0.60891043  0.88346649  0.08580671     0.33000
C171        C  0.55361271  0.88150555  0.10718975     0.14700
F172        F  0.50026376  0.06200688  0.10568762    -0.12600
F173        F  0.64525679  0.82480975  0.08126634    -0.13100
F174        F  0.60717145  0.06630467  0.06335298    -0.15400
F175        F  0.53876500  0.82152760  0.12258602    -0.14000
F176        F  0.39116720  0.87216693  0.11722671    -0.14000
F177        F  0.48674047  0.97849156  0.22818995    -0.15400
C178        C  0.25097549  0.98507130  0.37744246     0.14700
C179        C  0.20650160  0.93093203  0.37353093     0.01600
C180        C  0.21217708  0.89167700  0.34579727     0.16600
C181        C  0.25619672  0.91114214  0.32071346     0.26000
C182        C  0.29408329  0.97152033  0.32268456    -0.40300
C183        C  0.29456648  0.00510160  0.35226498     0.33100
C184        C  0.14677489  0.92453137  0.39518318     0.01700
F185        F  0.17135395  0.83741741  0.34205230    -0.12600
F186        F  0.33370880  0.06062950  0.35597758    -0.13100
C187        C  0.08390564  0.94655407  0.38413640     0.16600
C188        C  0.02824963  0.95103607  0.40515142     0.26000
C189        C  0.03414677  0.93326561  0.43786672    -0.40300
C190        C  0.09687613  0.90799465  0.44852034     0.33000
C191        C  0.15270421  0.90406141  0.42733372     0.14700
F192        F  0.07736389  0.96773280  0.35320174    -0.12600
F193        F  0.10522336  0.88967286  0.47968081    -0.13100
F194        F  0.96943059  0.97589871  0.39355386    -0.15400
F195        F  0.21303655  0.88206496  0.43835504    -0.14000
F196        F  0.24747601  0.02279730  0.40444493    -0.14000
F197        F  0.25742992  0.87318279  0.29393923    -0.15400
C198        C  0.13709604  0.93949590  0.11916212     0.14700
C199        C  0.14102447  0.99508770  0.13977643     0.01600
C200        C  0.08666988  0.04144300  0.14252288     0.16600
C201        C  0.02840737  0.03157835  0.12528948     0.26000
C202        C  0.02421318  0.97591155  0.10438950    -0.40300
C203        C  0.07953939  0.93030005  0.10132860     0.33100
C204        C  0.19549496  0.99699259  0.16290487     0.01700
F205        F  0.08932446  0.09514824  0.16266973    -0.12600
F206        F  0.07756629  0.87613617  0.08143586    -0.13100
C207        C  0.24930182  0.04256610  0.15941720     0.16600
C208        C  0.29601399  0.04744921  0.18389403     0.26000
C209        C  0.28897855  0.00702997  0.21205897    -0.40300
C210        C  0.23622868  0.95982141  0.21447970     0.33000
C211        C  0.19025096  0.95487373  0.19020380     0.14700
F212        F  0.25497743  0.08388051  0.13302888    -0.12600
F213        F  0.22502679  0.92244054  0.24152752    -0.13100
F214        F  0.34616494  0.09370012  0.18085127    -0.15400
F215        F  0.13742260  0.91201264  0.19432669    -0.14000
F216        F  0.18865008  0.89328372  0.11692099    -0.14000
F217        F  0.97671772  0.07730791  0.12868637    -0.15400
N218        N  0.33845469  0.98017599  0.76505299    -0.01500
C219        C  0.32478051  0.02644429  0.74119979     0.01100
C220        C  0.30866062  0.08898621  0.75470727    -0.21800
C221        C  0.30441413  0.07851257  0.78728018    -0.22000
C222        C  0.31960701  0.01012403  0.79311887     0.01000
H223        H  0.28844258  0.13345626  0.74230811     0.14800
H224        H  0.28198328  0.11438695  0.80412033     0.14800
N225        N  0.37371202  0.91647098  0.76165415    -0.01500
C226        C  0.40056908  0.87722335  0.78564395     0.01100
C227        C  0.41857971  0.81359064  0.77382243    -0.21800
C228        C  0.40687096  0.81560584  0.74155734    -0.22000
C229        C  0.38282588  0.88063251  0.73412334     0.01000
H230        H  0.44633861  0.77342699  0.78612354     0.14800
H231        H  0.42544773  0.77793274  0.72460601     0.14800
N232        N  0.91993471  0.44721078  0.76881101    -0.01500
C233        C  0.96023802  0.43276972  0.74273996     0.01100
C234        C  0.02562005  0.42271655  0.75236628    -0.21800
C235        C  0.02439380  0.42560265  0.78526940    -0.22000
C236        C  0.95828753  0.43709692  0.79509138     0.01000
H237        H  0.06764162  0.40485588  0.73764578     0.14800
H238        H  0.06530517  0.40929131  0.80042191     0.14800
N239        N  0.85221774  0.47226369  0.76849096    -0.01500
C240        C  0.80895183  0.47809052  0.79426559     0.01100
C241        C  0.74408419  0.48445469  0.78343767    -0.21800
C242        C  0.74849335  0.49041405  0.75062310    -0.22000
C243        C  0.81605126  0.48665191  0.74192323     0.01000
H244        H  0.69972321  0.49726120  0.79785144     0.14800
H245        H  0.70784221  0.50765310  0.73562926     0.14800
O246        O  0.83039498  0.09989662  0.55523661    -0.78100
O247        O  0.79255646  0.96956690  0.93754103    -0.78200
O248        O  0.93909983  0.07879110  0.98456753    -0.78200
O249        O  0.72421949  0.89619181  0.54390809    -0.78100
O250        O  0.83003322  0.07279534  0.97674654    -0.78200
O251        O  0.72762645  0.00545515  0.55196858    -0.78100
O252        O  0.73350385  0.94316849  0.98140778    -0.78100
O253        O  0.94032747  0.09199713  0.54888010    -0.78200
C254        C  0.88795398  0.12546735  0.55826085     1.11600
C255        C  0.73608259  0.95733632  0.95086110     1.11400
C256        C  0.88491342  0.10527241  0.97396464     1.11600
C257        C  0.69551811  0.95016550  0.55400366     1.11500
O258        O  0.81601762  0.90488249  0.58382556    -0.78100
O259        O  0.92339940  0.97509918  0.95155561    -0.78200
O260        O  0.97650057  0.94766205  0.55537536    -0.78100
O261        O  0.76821386  0.81244636  0.99640812    -0.78100
O262        O  0.85048941  0.86467168  0.96961574    -0.78200
O263        O  0.91068873  0.00150222  0.58975217    -0.78100
O264        O  0.85727550  0.84260155  0.54393554    -0.78100
O265        O  0.98324224  0.93500995  0.99033134    -0.78200
Co266      Co  0.82169802  0.00218057  0.56711989     1.51500
Co267      Co  0.83644120  0.97135283  0.97667476     1.51700
Co268      Co  0.95474223  0.00998927  0.51990687     1.51600
Co269      Co  0.80260843  0.89527493  0.51281019     1.51500
O270        O  0.85882839  0.97620768  0.52296118    -1.40100
C271        C  0.84421256  0.84986413  0.57367264     1.11500
C272        C  0.97704356  0.94639531  0.96076148     1.11600
C273        C  0.96653794  0.97186741  0.58282715     1.11500
C274        C  0.81194668  0.81204718  0.97386413     1.11500
C275        C  0.88462825  0.68138557  0.91543097     0.14700
C276        C  0.82627925  0.64848350  0.90564141     0.01600
C277        C  0.76401037  0.66680176  0.92010342     0.16600
C278        C  0.76003967  0.71769908  0.94338274     0.26000
C279        C  0.81807034  0.75251331  0.95223938    -0.40300
C280        C  0.88051542  0.73324915  0.93827865     0.33100
C281        C  0.82942092  0.60008809  0.87835400     0.01700
F282        F  0.70633514  0.63835639  0.91031333    -0.12600
F283        F  0.93763734  0.76476960  0.94668117    -0.13100
C284        C  0.80190357  0.53406064  0.88107054     0.16600
C285        C  0.79878070  0.49220983  0.85410254     0.26000
C286        C  0.82469142  0.51481529  0.82410512    -0.40300
C287        C  0.85333573  0.58024072  0.82175641     0.33000
C288        C  0.85569726  0.62223861  0.84844676     0.14700
F289        F  0.77645595  0.51084352  0.90965446    -0.12600
F290        F  0.87294258  0.60677185  0.79293920    -0.13100
F291        F  0.76838319  0.43055183  0.85700438    -0.15400
F292        F  0.87912203  0.68690914  0.84443374    -0.14000
F293        F  0.94564928  0.66398777  0.90240322    -0.14000
F294        F  0.69863796  0.73592509  0.95576513    -0.15400
C295        C  0.90538617  0.61936598  0.68913174     0.14700
C296        C  0.86616869  0.61886425  0.66180534     0.01600
C297        C  0.81875991  0.56708625  0.65864239     0.16600
C298        C  0.80698361  0.51967876  0.68368844     0.26000
C299        C  0.84186101  0.52382967  0.71252895    -0.40300
C300        C  0.89368646  0.57232949  0.71421503     0.33100
C301        C  0.86629605  0.67875273  0.63962781     0.01700
F302        F  0.78020040  0.56581518  0.63233684    -0.12600
F303        F  0.93087665  0.57756660  0.74068842    -0.13100
C304        C  0.89660157  0.67587354  0.60895457     0.16600
C305        C  0.89183116  0.73223470  0.58770299     0.26000
C306        C  0.85604828  0.79219912  0.59682930    -0.40300
C307        C  0.82840831  0.79534924  0.62830711     0.33000
C308        C  0.83338822  0.73921328  0.64929392     0.14700
F309        F  0.93046312  0.61841472  0.59959606    -0.12600
F310        F  0.79454074  0.85196755  0.63877412    -0.13100
F311        F  0.92192298  0.72780995  0.55823891    -0.15400
F312        F  0.80404606  0.74309276  0.67896792    -0.14000
F313        F  0.95217507  0.66852682  0.69240649    -0.14000
F314        F  0.75877221  0.47199379  0.68044885    -0.15400
C315        C  0.95750374  0.25151457  0.92360567     0.14700
C316        C  0.89953851  0.28206937  0.91090006     0.01600
C317        C  0.83606374  0.25931492  0.92189413     0.16600
C318        C  0.83071771  0.20395592  0.94364278     0.26000
C319        C  0.88894558  0.17058307  0.95502305    -0.40300
C320        C  0.95243833  0.19691641  0.94554926     0.33100
C321        C  0.90595108  0.32947353  0.88280909     0.01700
F322        F  0.77915405  0.28896951  0.91046513    -0.12600
F323        F  0.01042339  0.16732398  0.95580677    -0.13100
C324        C  0.87914069  0.31020900  0.85364454     0.16600
C325        C  0.89281926  0.34796970  0.82566682     0.26000
C326        C  0.93372808  0.40608918  0.82594488    -0.40300
C327        C  0.95960648  0.42645417  0.85527297     0.33000
C328        C  0.94537829  0.38875403  0.88355954     0.14700
F329        F  0.84373620  0.25152609  0.85170440    -0.12600
F330        F  0.00021096  0.48158521  0.85629502    -0.13100
F331        F  0.86981921  0.32426365  0.79789767    -0.15400
F332        F  0.97193221  0.40865623  0.91145506    -0.14000
F333        F  0.01951710  0.27091057  0.91286270    -0.14000
F334        F  0.76856498  0.18166457  0.95257505    -0.15400
C335        C  0.84453263  0.27177414  0.61480748     0.14700
C336        C  0.90812108  0.28776393  0.62632148     0.01600
C337        C  0.96543729  0.25648763  0.61215152     0.16600
C338        C  0.95923540  0.20814869  0.58799851     0.26000
C339        C  0.89520248  0.18827273  0.57793441    -0.40300
C340        C  0.83802144  0.22259055  0.59101844     0.33100
C341        C  0.91449710  0.33181278  0.65493636     0.01700
F342        F  0.02750719  0.26908031  0.62326168    -0.12600
F343        F  0.77523800  0.20661356  0.58191293    -0.13100
C344        C  0.88066433  0.31426938  0.68384200     0.16600
C345        C  0.89146968  0.35068076  0.71173643     0.26000
C346        C  0.93791311  0.40435570  0.71182915    -0.40300
C347        C  0.97008831  0.42355456  0.68266606     0.33000
C348        C  0.95776339  0.38830134  0.65441517     0.14700
F349        F  0.84013360  0.25889204  0.68565211    -0.12600
F350        F  0.01419726  0.47597764  0.68166718    -0.13100
F351        F  0.85897913  0.33042038  0.73901250    -0.15400
F352        F  0.98910408  0.40847278  0.62663959    -0.14000
F353        F  0.78824414  0.30229324  0.62739977    -0.14000
F354        F  0.01618223  0.17767028  0.57609280    -0.15400
C355        C  0.62615739  0.95996125  0.87810947     0.14700
C356        C  0.56162947  0.94882978  0.89147736     0.01600
C357        C  0.55363156  0.94391092  0.92503834     0.16600
C358        C  0.60968605  0.94881612  0.94473201     0.26000
C359        C  0.67466892  0.95879257  0.93111788    -0.40300
C360        C  0.68157436  0.96545095  0.89749568     0.33100
C361        C  0.50521086  0.93832548  0.86944041     0.01700
F362        F  0.49177420  0.93404404  0.93871399    -0.12600
F363        F  0.74261636  0.97466124  0.88284064    -0.13100
C364        C  0.47171901  0.87543747  0.86926993     0.16600
C365        C  0.43273130  0.85825069  0.84315560     0.26000
C366        C  0.42848476  0.90250125  0.81615067    -0.40300
C367        C  0.45963355  0.96683443  0.81728708     0.33000
C368        C  0.49465798  0.98559651  0.84424637     0.14700
F369        F  0.48135265  0.82817894  0.89301072    -0.12600
F370        F  0.46132747  0.00980018  0.79143752    -0.13100
F371        F  0.40272660  0.79622500  0.84339583    -0.15400
F372        F  0.52367430  0.04812104  0.84449991    -0.14000
F373        F  0.63637481  0.96233563  0.84581757    -0.14000
F374        F  0.60033256  0.94283410  0.97697413    -0.15400
C375        C  0.41302484  0.90077439  0.64470802     0.14700
C376        C  0.47134896  0.94078518  0.64382113     0.01600
C377        C  0.49239478  0.97024701  0.67223391     0.16600
C378        C  0.45924663  0.95554368  0.70140759     0.26000
C379        C  0.40393487  0.91146978  0.70277190    -0.40300
C380        C  0.37967970  0.88598769  0.67403625     0.33100
C381        C  0.51773914  0.94180076  0.61533467     0.01700
F382        F  0.54941329  0.00762791  0.67223687    -0.11900
F383        F  0.32604506  0.84376045  0.67467546    -0.13100
C384        C  0.53581600  0.00383513  0.60006971     0.16600
C385        C  0.59106599  0.00623882  0.57841066     0.26000
C386        C  0.62954272  0.94654914  0.57180426    -0.40300
C387        C  0.60819808  0.88371491  0.58560736     0.33000
C388        C  0.55300712  0.88152292  0.60707843     0.14700
F389        F  0.50174617  0.06259938  0.60729175    -0.12600
F390        F  0.64382542  0.82484450  0.58046373    -0.13100
F391        F  0.60832250  0.06742148  0.56485993    -0.15400
F392        F  0.53757300  0.82113506  0.62196637    -0.14000
F393        F  0.39085142  0.87283685  0.61746819    -0.14000
F394        F  0.48582528  0.97849085  0.72872327    -0.15400
C395        C  0.25013781  0.98671806  0.87731645     0.14700
C396        C  0.20595475  0.93236818  0.87333747     0.01600
C397        C  0.21148363  0.89348681  0.84550490     0.16600
C398        C  0.25517929  0.91340543  0.82041079     0.26000
C399        C  0.29284994  0.97390223  0.82248218    -0.40300
C400        C  0.29338546  0.00726519  0.85210737     0.33100
C401        C  0.14630926  0.92559216  0.89492628     0.01700
F402        F  0.17065772  0.83927140  0.84165189    -0.12600
F403        F  0.33223809  0.06300155  0.85584171    -0.13100
C404        C  0.08367038  0.94871713  0.88407539     0.16600
C405        C  0.02800084  0.95235429  0.90507568     0.26000
C406        C  0.03375514  0.93283855  0.93759883    -0.40300
C407        C  0.09622109  0.90638732  0.94800172     0.33000
C408        C  0.15205190  0.90316288  0.92680400     0.14700
F409        F  0.07738425  0.97167678  0.85338651    -0.12600
F410        F  0.10426215  0.88606629  0.97892826    -0.13100
F411        F  0.96935890  0.97817067  0.89369080    -0.15400
F412        F  0.21217903  0.87989179  0.93755079    -0.14000
F413        F  0.24662524  0.02411230  0.90442116    -0.14000
F414        F  0.25622544  0.87577943  0.79353097    -0.15400
C415        C  0.13868579  0.94320742  0.61783237     0.14700
C416        C  0.14125418  0.99727548  0.63934804     0.01600
C417        C  0.08562403  0.04175249  0.64303946     0.16600
C418        C  0.02741790  0.03149116  0.62583989     0.26000
C419        C  0.02436536  0.97704385  0.60418663    -0.40300
C420        C  0.08102441  0.93341307  0.60016199     0.33100
C421        C  0.19552701  0.99873052  0.66255474     0.01700
F422        F  0.08706456  0.09397864  0.66406379    -0.12600
F423        F  0.08035129  0.88059153  0.57945415    -0.13100
C424        C  0.25067755  0.04251209  0.65872597     0.16600
C425        C  0.29699705  0.04751711  0.68337003     0.26000
C426        C  0.28831106  0.00882718  0.71195927    -0.40300
C427        C  0.23418165  0.96333158  0.71473334     0.33000
C428        C  0.18861122  0.95825165  0.69030405     0.14700
F429        F  0.25794822  0.08218029  0.63187216    -0.12600
F430        F  0.22115261  0.92822925  0.74226618    -0.13100
F431        F  0.34838794  0.09226967  0.68004672    -0.15400
F432        F  0.13462727  0.91696862  0.69464447    -0.14000
F433        F  0.19157909  0.89884013  0.61463240    -0.14000
F434        F  0.97466360  0.07568151  0.63003333    -0.15400
loop_ 
_geom_bond_atom_site_label_1 
_geom_bond_atom_site_label_2 
_geom_bond_distance 
_geom_bond_site_symmetry_2 
_ccdc_geom_bond_type 
N1            C5   1.361   1_565  A
N1            C2   1.363   1_565  A
N1            N8   1.426       .  S
C2            C3   1.383       .  A
C2          C209   1.486       .  S
C3            C4   1.372       .  A
C3            H6   1.081       .  S
C4            C5   1.383       .  A
C4            H7   1.084       .  S
C5          C182   1.496   1_545  S
N8           C12   1.363       .  A
N8            C9   1.365       .  A
C9           C10   1.383       .  A
C9          C149   1.496       .  S
C10          C11   1.374       .  A
C10          H13   1.082       .  S
C11          C12   1.383       .  A
C11          H14   1.084       .  S
C12         C162   1.485       .  S
N15          C19   1.363       .  A
N15          C16   1.365       .  A
N15          N22   1.426       .  S
C16          C17   1.382   1_655  A
C16         C129   1.495       .  S
C17          C18   1.376       .  A
C17          H20   1.081       .  S
C18          C19   1.383   1_455  A
C18          H21   1.085       .  S
C19         C109   1.487       .  S
N22          C26   1.361       .  A
N22          C23   1.365       .  A
C23          C24   1.382       .  A
C23          C69   1.491       .  S
C24          C25   1.374       .  A
C24          H27   1.083       .  S
C25          C26   1.384       .  A
C25          H28   1.082       .  S
C26          C82   1.498       .  S
O29          C37   1.266       .  A
O29         Co49   1.971       .  S
O30          C38   1.264       .  A
O30         Co50   1.873       .  S
O31          C39   1.275       .  A
O31        Co268   2.009       .  S
O32          C40   1.264       .  A
O32         Co52   2.001       .  S
O33          C39   1.272       .  A
O33         Co50   1.982   1_545  S
O34          C40   1.262   1_545  A
O34         Co49   1.991       .  S
O35          C38   1.301       .  A
O35        Co269   2.124       .  S
O36          C37   1.278       .  A
O36         Co51   2.037       .  S
C37         C122   1.499       .  S
C38         C142   1.491       .  S
C39         C102   1.491       .  S
C40         C169   1.492       .  S
O41          C54   1.278       .  A
O41         Co49   2.017   1_565  S
O42          C55   1.264       .  A
O42         Co50   2.004       .  S
O43          C56   1.258       .  A
O43         Co51   1.955   1_565  S
O44          C57   1.265       .  A
O44        Co269   1.897       .  S
O45          C57   1.298       .  A
O45         Co50   2.120       .  S
O46          C56   1.273   1_545  A
O46         Co49   2.029       .  S
O47          C54   1.272       .  A
O47         Co52   1.980       .  S
O48          C55   1.260       .  A
O48        Co268   1.984   1_565  S
Co49         O53   2.037   1_545  S
Co50        O270   1.993       .  S
Co51        O248   2.008   1_554  S
Co51        O265   1.984   1_544  S
Co51         O53   2.029   1_545  S
Co52        O252   2.124   1_554  S
Co52        O261   1.897   1_554  S
Co52         O53   2.008       .  S
O53        Co267   1.994   1_554  S
C54          C89   1.491       .  S
C55         C189   1.491   1_655  S
C56         C202   1.480   1_655  S
C57          C62   1.486       .  S
C58          C59   1.409       .  A
C58          C63   1.403       .  A
C58          F76   1.358       .  S
C59          C60   1.408       .  A
C59          C64   1.494       .  S
C60          C61   1.402       .  A
C60          F65   1.358       .  S
C61          C62   1.410       .  A
C61          F77   1.358       .  S
C62          C63   1.407       .  A
C63          F66   1.358       .  S
C64          C67   1.410       .  A
C64          C71   1.405       .  A
C67          C68   1.406       .  A
C67          F72   1.357       .  S
C68          C69   1.408       .  A
C68          F74   1.357       .  S
C69          C70   1.407       .  A
C70          C71   1.397       .  A
C70          F73   1.352       .  S
C71          F75   1.358       .  S
C78          C79   1.400       .  A
C78          C83   1.398       .  A
C78          F96   1.358       .  S
C79          C80   1.403       .  A
C79          C84   1.479       .  S
C80          C81   1.402       .  A
C80          F85   1.357       .  S
C81          C82   1.410       .  A
C81          F97   1.358       .  S
C82          C83   1.414       .  A
C83          F86   1.353       .  S
C84          C87   1.403       .  A
C84          C91   1.401       .  A
C87          C88   1.405       .  A
C87          F92   1.357       .  S
C88          C89   1.414       .  A
C88          F94   1.358       .  S
C89          C90   1.413       .  A
C90          C91   1.395       .  A
C90          F93   1.358       .  S
C91          F95   1.358       .  S
C98          C99   1.403       .  A
C98         C103   1.397       .  A
C98         F116   1.358   1_655  S
C99         C100   1.407       .  A
C99         C104   1.485       .  S
C100        C101   1.403       .  A
C100        F105   1.358       .  S
C101        C102   1.410       .  A
C101        F117   1.358       .  S
C102        C103   1.415       .  A
C103        F106   1.358   1_655  S
C104        C107   1.403       .  A
C104        C111   1.409       .  A
C107        C108   1.393       .  A
C107        F112   1.359       .  S
C108        C109   1.406       .  A
C108        F114   1.350       .  S
C109        C110   1.407       .  A
C110        C111   1.406       .  A
C110        F113   1.357       .  S
C111        F115   1.357       .  S
C118        C119   1.407       .  A
C118        C123   1.404       .  A
C118        F136   1.358       .  S
C119        C120   1.407       .  A
C119        C124   1.495       .  S
C120        C121   1.402       .  A
C120        F125   1.358   1_655  S
C121        C122   1.414       .  A
C121        F137   1.358   1_655  S
C122        C123   1.413       .  A
C123        F126   1.358       .  S
C124        C127   1.407       .  A
C124        C131   1.409       .  A
C127        C128   1.399       .  A
C127        F132   1.358       .  S
C128        C129   1.408       .  A
C128        F134   1.351       .  S
C129        C130   1.408       .  A
C130        C131   1.405       .  A
C130        F133   1.357   1_655  S
C131        F135   1.357       .  S
C138        C139   1.405       .  A
C138        C143   1.391       .  A
C138        F156   1.359       .  S
C139        C140   1.408       .  A
C139        C144   1.489       .  S
C140        C141   1.408       .  A
C140        F145   1.358       .  S
C141        C142   1.413       .  A
C141        F157   1.358       .  S
C142        C143   1.411       .  A
C143        F146   1.358       .  S
C144        C147   1.406       .  A
C144        C151   1.405       .  A
C147        C148   1.404       .  A
C147        F152   1.358       .  S
C148        C149   1.411       .  A
C148        F154   1.358       .  S
C149        C150   1.410       .  A
C150        C151   1.396       .  A
C150        F153   1.355   1_565  S
C151        F155   1.358   1_565  S
C158        C159   1.407       .  A
C158        C163   1.405       .  A
C158        F176   1.357       .  S
C159        C160   1.404       .  A
C159        C164   1.486       .  S
C160        C161   1.398       .  A
C160        F165   1.358   1_565  S
C161        C162   1.407       .  A
C161        F177   1.356       .  S
C162        C163   1.407       .  A
C163        F166   1.357       .  S
C164        C167   1.406   1_565  A
C164        C171   1.404       .  A
C167        C168   1.406       .  A
C167        F172   1.358       .  S
C168        C169   1.411   1_545  A
C168        F174   1.357       .  S
C169        C170   1.412       .  A
C170        C171   1.399       .  A
C170        F173   1.358       .  S
C171        F175   1.358       .  S
C178        C179   1.403       .  A
C178        C183   1.399   1_565  A
C178        F196   1.357   1_565  S
C179        C180   1.401       .  A
C179        C184   1.479       .  S
C180        C181   1.398       .  A
C180        F185   1.358       .  S
C181        C182   1.413       .  A
C181        F197   1.352       .  S
C182        C183   1.409   1_565  A
C183        F186   1.358       .  S
C184        C187   1.403       .  A
C184        C191   1.402       .  A
C187        C188   1.397       .  A
C187        F192   1.359       .  S
C188        C189   1.411       .  A
C188        F194   1.358   1_455  S
C189        C190   1.415       .  A
C190        C191   1.403       .  A
C190        F193   1.357       .  S
C191        F195   1.358       .  S
C198        C199   1.401       .  A
C198        C203   1.398       .  A
C198        F216   1.358       .  S
C199        C200   1.403   1_565  A
C199        C204   1.472       .  S
C200        C201   1.398       .  A
C200        F205   1.358       .  S
C201        C202   1.411   1_545  A
C201        F217   1.357   1_455  S
C202        C203   1.409       .  A
C203        F206   1.358       .  S
C204        C207   1.405   1_565  A
C204        C211   1.396       .  A
C207        C208   1.405       .  A
C207        F212   1.357       .  S
C208        C209   1.410       .  A
C208        F214   1.358       .  S
C209        C210   1.407   1_545  A
C210        C211   1.389       .  A
C210        F213   1.349       .  S
C211        F215   1.359       .  S
N218        C222   1.360   1_565  A
N218        C219   1.363   1_565  A
N218        N225   1.426       .  S
C219        C220   1.383       .  A
C219        C426   1.485       .  S
C220        C221   1.373       .  A
C220        H223   1.081       .  S
C221        C222   1.383       .  A
C221        H224   1.084       .  S
C222        C399   1.494   1_545  S
N225        C229   1.363       .  A
N225        C226   1.366       .  A
C226        C227   1.383       .  A
C226        C366   1.498       .  S
C227        C228   1.374       .  A
C227        H230   1.082       .  S
C228        C229   1.383       .  A
C228        H231   1.084       .  S
C229        C379   1.484       .  S
N232        C236   1.363       .  A
N232        C233   1.366       .  A
N232        N239   1.426       .  S
C233        C234   1.382   1_655  A
C233        C346   1.495       .  S
C234        C235   1.376       .  A
C234        H237   1.081       .  S
C235        C236   1.383   1_455  A
C235        H238   1.085       .  S
C236        C326   1.488       .  S
N239        C243   1.361       .  A
N239        C240   1.365       .  A
C240        C241   1.382       .  A
C240        C286   1.491       .  S
C241        C242   1.374       .  A
C241        H244   1.083       .  S
C242        C243   1.384       .  A
C242        H245   1.082       .  S
C243        C299   1.498       .  S
O246        C254   1.266       .  A
O246       Co266   1.971       .  S
O247        C255   1.264       .  A
O247       Co267   1.875       .  S
O248        C256   1.275       .  A
O249        C257   1.264       .  A
O249       Co269   2.002       .  S
O250        C256   1.272       .  A
O250       Co267   1.982   1_545  S
O251        C257   1.263   1_545  A
O251       Co266   1.991       .  S
O252        C255   1.301       .  A
O253        C254   1.277       .  A
O253       Co268   2.036       .  S
C254        C339   1.499       .  S
C255        C359   1.492       .  S
C256        C319   1.490       .  S
C257        C386   1.493       .  S
O258        C271   1.278       .  A
O258       Co266   2.015   1_565  S
O259        C272   1.263       .  A
O259       Co267   2.000       .  S
O260        C273   1.257       .  A
O260       Co268   1.954   1_565  S
O261        C274   1.265       .  A
O262        C274   1.298       .  A
O262       Co267   2.121       .  S
O263        C273   1.273   1_545  A
O263       Co266   2.029       .  S
O264        C271   1.272       .  A
O264       Co269   1.981       .  S
O265        C272   1.260       .  A
Co266       O270   2.038   1_545  S
Co268       O270   2.028   1_545  S
Co269       O270   2.007       .  S
C271        C306   1.491       .  S
C272        C406   1.490   1_655  S
C273        C419   1.480   1_655  S
C274        C279   1.486       .  S
C275        C276   1.409       .  A
C275        C280   1.403       .  A
C275        F293   1.358       .  S
C276        C277   1.407       .  A
C276        C281   1.492       .  S
C277        C278   1.402       .  A
C277        F282   1.358       .  S
C278        C279   1.410       .  A
C278        F294   1.358       .  S
C279        C280   1.407       .  A
C280        F283   1.358       .  S
C281        C284   1.409       .  A
C281        C288   1.405       .  A
C284        C285   1.406       .  A
C284        F289   1.357       .  S
C285        C286   1.408       .  A
C285        F291   1.357       .  S
C286        C287   1.407       .  A
C287        C288   1.398       .  A
C287        F290   1.352       .  S
C288        F292   1.358       .  S
C295        C296   1.400       .  A
C295        C300   1.398       .  A
C295        F313   1.358       .  S
C296        C297   1.403       .  A
C296        C301   1.479       .  S
C297        C298   1.402       .  A
C297        F302   1.358       .  S
C298        C299   1.410       .  A
C298        F314   1.358       .  S
C299        C300   1.414       .  A
C300        F303   1.353       .  S
C301        C304   1.403       .  A
C301        C308   1.401       .  A
C304        C305   1.405       .  A
C304        F309   1.357       .  S
C305        C306   1.413       .  A
C305        F311   1.357       .  S
C306        C307   1.413       .  A
C307        C308   1.395       .  A
C307        F310   1.358       .  S
C308        F312   1.359       .  S
C315        C316   1.403       .  A
C315        C320   1.396       .  A
C315        F333   1.358   1_655  S
C316        C317   1.408       .  A
C316        C321   1.485       .  S
C317        C318   1.403       .  A
C317        F322   1.358       .  S
C318        C319   1.410       .  A
C318        F334   1.358       .  S
C319        C320   1.415       .  A
C320        F323   1.358   1_655  S
C321        C324   1.402       .  A
C321        C328   1.409       .  A
C324        C325   1.393       .  A
C324        F329   1.358       .  S
C325        C326   1.407       .  A
C325        F331   1.350       .  S
C326        C327   1.407       .  A
C327        C328   1.405       .  A
C327        F330   1.357   1_655  S
C328        F332   1.357       .  S
C335        C336   1.407       .  A
C335        C340   1.404       .  A
C335        F353   1.358       .  S
C336        C337   1.406       .  A
C336        C341   1.494       .  S
C337        C338   1.402       .  A
C337        F342   1.358   1_655  S
C338        C339   1.414       .  A
C338        F354   1.358   1_655  S
C339        C340   1.413       .  A
C340        F343   1.358       .  S
C341        C344   1.406       .  A
C341        C348   1.409       .  A
C344        C345   1.399       .  A
C344        F349   1.358       .  S
C345        C346   1.407       .  A
C345        F351   1.351       .  S
C346        C347   1.408       .  A
C347        C348   1.405       .  A
C347        F350   1.357   1_655  S
C348        F352   1.357       .  S
C355        C356   1.404       .  A
C355        C360   1.392       .  A
C355        F373   1.359       .  S
C356        C357   1.408       .  A
C356        C361   1.489       .  S
C357        C358   1.409       .  A
C357        F362   1.358       .  S
C358        C359   1.413       .  A
C358        F374   1.358       .  S
C359        C360   1.411       .  A
C360        F363   1.358       .  S
C361        C364   1.406       .  A
C361        C368   1.405       .  A
C364        C365   1.404       .  A
C364        F369   1.358       .  S
C365        C366   1.412       .  A
C365        F371   1.358       .  S
C366        C367   1.411       .  A
C367        C368   1.397       .  A
C367        F370   1.355   1_565  S
C368        F372   1.358   1_565  S
C375        C376   1.408       .  A
C375        C380   1.405       .  A
C375        F393   1.357       .  S
C376        C377   1.404       .  A
C376        C381   1.486       .  S
C377        C378   1.397       .  A
C377        F382   1.358   1_565  S
C378        C379   1.406       .  A
C378        F394   1.356       .  S
C379        C380   1.407       .  A
C380        F383   1.358       .  S
C381        C384   1.406   1_565  A
C381        C388   1.404       .  A
C384        C385   1.405       .  A
C384        F389   1.358       .  S
C385        C386   1.411   1_545  A
C385        F391   1.357       .  S
C386        C387   1.412       .  A
C387        C388   1.399       .  A
C387        F390   1.358       .  S
C388        F392   1.358       .  S
C395        C396   1.403       .  A
C395        C400   1.399   1_565  A
C395        F413   1.357   1_565  S
C396        C397   1.400       .  A
C396        C401   1.477       .  S
C397        C398   1.397       .  A
C397        F402   1.358       .  S
C398        C399   1.413       .  A
C398        F414   1.352       .  S
C399        C400   1.409   1_565  A
C400        F403   1.358       .  S
C401        C404   1.403       .  A
C401        C408   1.401       .  A
C404        C405   1.396       .  A
C404        F409   1.359       .  S
C405        C406   1.411       .  A
C405        F411   1.358   1_455  S
C406        C407   1.414       .  A
C407        C408   1.403       .  A
C407        F410   1.357       .  S
C408        F412   1.358       .  S
C415        C416   1.400       .  A
C415        C420   1.398       .  A
C415        F433   1.358       .  S
C416        C417   1.403   1_565  A
C416        C421   1.471       .  S
C417        C418   1.398       .  A
C417        F422   1.358       .  S
C418        C419   1.411   1_545  A
C418        F434   1.358   1_455  S
C419        C420   1.410       .  A
C420        F423   1.358       .  S
C421        C424   1.405   1_565  A
C421        C428   1.396       .  A
C424        C425   1.405       .  A
C424        F429   1.357       .  S
C425        C426   1.410       .  A
C425        F431   1.357       .  S
C426        C427   1.407   1_545  A
C427        C428   1.389       .  A
C427        F430   1.349       .  S
C428        F432   1.359       .  S
