geometry optimzed in LAMMPS
_audit_creation_date              2020-11-30 
_audit_creation_method            'lammps2cif' 
_symmetry_space_group_name_H-M    'P1' 
_symmetry_Int_Tables_number       1 
_symmetry_cell_setting            triclinic 
loop_ 
_symmetry_equiv_pos_as_xyz 
  x,y,z 
_cell_length_a                    47.16231037 
_cell_length_b                    47.402318123608396 
_cell_length_c                    34.828342315229506 
_cell_angle_alpha                 89.9140525860976 
_cell_angle_beta                  89.84072805909938 
_cell_angle_gamma                 90.2252468457559 
loop_ 
_atom_site_label 
_atom_site_type_symbol 
_atom_site_fract_x 
_atom_site_fract_y 
_atom_site_fract_z 
_atom_site_charge 
C1          C  0.42924911  0.17451852  0.45834311     0.31700
C2          C  0.42884539  0.17401027  0.03764106     0.31700
C3          C  0.43282833  0.14539817  0.47754024    -0.04500
C4          C  0.45297306  0.19129385  0.47803472    -0.05300
C5          C  0.40260406  0.18619718  0.47775397    -0.05100
C6          C  0.43167037  0.14468952  0.01793382    -0.04500
C7          C  0.45254304  0.19127027  0.01805604    -0.05200
C8          C  0.40176075  0.18533883  0.01778818    -0.05100
C9          C  0.44270517  0.11880017  0.02889172    -0.30500
N10         N  0.45277024  0.10540248  0.99733607     0.16000
C11         C  0.44782488  0.12185002  0.46637749    -0.30500
H12         H  0.45650752  0.11802561  0.43806235     0.17900
C13         C  0.47420221  0.20868820  0.03012194    -0.29500
N14         N  0.48773888  0.21907002  0.49863572     0.14700
C15         C  0.47528327  0.20817865  0.46680351    -0.29500
C16         C  0.37581910  0.19661271  0.02833198    -0.29800
N17         N  0.36246652  0.20612215  0.99637459     0.15200
H18         H  0.36757204  0.19895871  0.05715175     0.17800
C19         C  0.37858143  0.19981480  0.46530872    -0.29800
H20         H  0.37355783  0.20544641  0.43599984     0.17800
H21         H  0.48172458  0.21281824  0.43762792     0.17800
H22         H  0.44583923  0.11130135  0.05787797     0.17900
H23         H  0.47895377  0.21438113  0.05950046     0.17800
C24         C  0.42936208  0.17464474  0.20833816     0.31700
C25         C  0.42900085  0.17493692  0.28770112     0.31700
C26         C  0.43401148  0.14561507  0.22819379    -0.04500
C27         C  0.45160138  0.19340279  0.22804790    -0.05300
C28         C  0.40147844  0.18427294  0.22793162    -0.05100
C29         C  0.43489910  0.14623695  0.26849873    -0.04500
C30         C  0.45161664  0.19342309  0.26809275    -0.05200
C31         C  0.40158030  0.18448287  0.26805023    -0.05100
C32         C  0.44975505  0.12264632  0.27986971    -0.30500
N33         N  0.45498784  0.10636013  0.24878839     0.16000
C34         C  0.44496079  0.11974582  0.21723650    -0.30500
H35         H  0.44781927  0.11207441  0.18830002     0.17900
C36         C  0.47318043  0.21113136  0.27946181    -0.29500
N37         N  0.48541737  0.22248539  0.24771493     0.14700
C38         C  0.47266276  0.21162009  0.21611133    -0.29500
C39         C  0.37651759  0.19647854  0.28018376    -0.29800
N40         N  0.36114988  0.20348386  0.24876953     0.15200
H41         H  0.37088954  0.20172263  0.30947296     0.17800
C42         C  0.37576353  0.19562869  0.21693982    -0.29800
H43         H  0.36832914  0.19899670  0.18797992     0.17800
H44         H  0.47779646  0.21719794  0.18674488     0.17800
H45         H  0.45782435  0.11849992  0.30839385     0.17900
H46         H  0.47960432  0.21569071  0.30859501     0.17800
C47         C  0.36226015  0.43213171  0.45805256     0.31700
C48         C  0.36137542  0.43236057  0.03753243     0.31700
C49         C  0.39099360  0.43796529  0.47790085    -0.04500
C50         C  0.34270458  0.45345120  0.47739211    -0.05300
C51         C  0.35369931  0.40400973  0.47764471    -0.05100
C52         C  0.39049461  0.43824978  0.01821852    -0.04500
C53         C  0.34209221  0.45347024  0.01730231    -0.05200
C54         C  0.35314893  0.40418184  0.01792460    -0.05100
C55         C  0.41722924  0.44639105  0.02990259    -0.30500
N56         N  0.43350956  0.45154183  0.49848108     0.16000
C57         C  0.41815380  0.44546245  0.46669768    -0.30500
H58         H  0.42573057  0.44852573  0.43765424     0.17900
C59         C  0.32235809  0.47308310  0.02843128    -0.29500
N60         N  0.31140258  0.48501242  0.49632236     0.14700
C61         C  0.32369778  0.47331065  0.46500682    -0.29500
C62         C  0.34414958  0.37771983  0.02935038    -0.29800
N63         N  0.33863508  0.36197661  0.49778654     0.15200
H64         H  0.34105926  0.37029606  0.05841492     0.17800
C65         C  0.34533258  0.37731525  0.46615322    -0.29800
H66         H  0.34277026  0.36988585  0.43702304     0.17800
H67         H  0.31846681  0.47826904  0.43552218     0.17800
H68         H  0.42418721  0.44995851  0.05903524     0.17900
H69         H  0.31608520  0.47805951  0.05756239     0.17800
C70         C  0.36221245  0.43149127  0.20837954     0.31700
C71         C  0.36225853  0.43188572  0.28784029     0.31700
C72         C  0.39094656  0.43836888  0.22780431    -0.04500
C73         C  0.34210976  0.45214581  0.22809580    -0.05300
C74         C  0.35471417  0.40311313  0.22831823    -0.05100
C75         C  0.39107822  0.43838623  0.26810872    -0.04500
C76         C  0.34226734  0.45238770  0.26796188    -0.05200
C77         C  0.35443128  0.40346202  0.26862698    -0.05100
C78         C  0.41809548  0.44641271  0.27931573    -0.30500
N79         N  0.43366960  0.45236873  0.24751022     0.16000
C80         C  0.41766974  0.44676804  0.21611841    -0.30500
H81         H  0.42485875  0.44996558  0.18694470     0.17900
C82         C  0.32282784  0.47197433  0.27977214    -0.29500
N83         N  0.31087221  0.48353067  0.24812954     0.14700
C84         C  0.32242616  0.47159249  0.21637213    -0.29500
C85         C  0.34530328  0.37713064  0.28049985    -0.29800
N86         N  0.33985825  0.36109142  0.24916502     0.15200
H87         H  0.34184602  0.37014883  0.30970815     0.17800
C88         C  0.34646477  0.37625535  0.21729830    -0.29800
H89         H  0.34375675  0.36862384  0.18830101     0.17800
H90         H  0.31698700  0.47679663  0.18703881     0.17800
H91         H  0.42549539  0.44965254  0.30833847     0.17900
H92         H  0.31739512  0.47713590  0.30915009     0.17800
O93         O  0.47865360  0.46428881  0.47550595    -0.76800
C94         C  0.02143709  0.01775000  0.39294021     0.84300
O95         O  0.07677898  0.47648391  0.01918295    -0.77900
O96         O  0.06313845  0.07456918  0.47463732    -0.79400
O97         O  0.46624824  0.06112557  0.02072415    -0.79200
O98         O  0.45861876  0.49028706  0.02120974    -0.77800
Zn99       Zn  0.01668597  0.48399966  0.46594657     1.55700
O100        O  0.99196302  0.08082746  0.47414316    -0.79200
Cd101      Cd  0.48686662  0.02293803  0.02901189     1.59700
Cd102      Cd  0.05650108  0.01477112  0.02769662     1.59600
O103        O  0.49850609  0.02184410  0.08469906    -0.79200
O104        O  0.02127528  0.01812871  0.49649491    -1.89700
Cd105      Cd  0.02519633  0.05311828  0.46540671     1.59900
O106        O  0.04554080  0.01605376  0.08392873    -0.79100
O107        O  0.02434602  0.04136735  0.40971521    -0.77800
C108        C  0.07050937  0.45593986  0.49721341     0.84700
C109        C  0.45825659  0.46918322  0.49865603     0.84400
O110        O  0.01827397  0.49454755  0.41082439    -0.76700
C111        C  0.47104197  0.08129302  0.99737090     0.85200
O112        O  0.04870830  0.45647559  0.47563547    -0.76800
C113        C  0.02214457  0.01901050  0.10155886     0.85300
C114        C  0.08380845  0.06989509  0.49722870     0.85700
O115        O  0.08433146  0.04825887  0.01900949    -0.79300
O116        O  0.05004232  0.45679099  0.26879997    -0.76800
C117        C  0.02175206  0.01771459  0.35155093     0.84300
O118        O  0.45888245  0.49123833  0.22486416    -0.77900
O119        O  0.99428210  0.08151941  0.27090095    -0.79400
O120        O  0.08550518  0.04802765  0.22484736    -0.79200
O121        O  0.07769785  0.47695304  0.22456106    -0.77800
Zn122      Zn  0.01758638  0.48398061  0.27846624     1.55700
O123        O  0.06518982  0.07319443  0.27119369    -0.79200
Cd124      Cd  0.05726230  0.01498867  0.21595981     1.59700
Cd125      Cd  0.48765798  0.02346901  0.21629703     1.59600
O126        O  0.04593881  0.01621820  0.15989835    -0.79200
O127        O  0.02226968  0.01818322  0.24795669    -1.89700
Cd128      Cd  0.02668433  0.05290855  0.27926811     1.59900
O129        O  0.49890236  0.02218234  0.16029494    -0.79100
O130        O  0.02495607  0.04129586  0.33477220    -0.77800
C131        C  0.45859240  0.46983076  0.24699049     0.84700
C132        C  0.07183849  0.45651136  0.24699833     0.84400
O133        O  0.01880347  0.49452326  0.33366246    -0.76700
C134        C  0.08560064  0.06882940  0.24800970     0.85200
O135        O  0.47932639  0.46437178  0.26924160    -0.76800
C136        C  0.02236281  0.01915144  0.14285028     0.85300
C137        C  0.47302859  0.08209516  0.24843524     0.85700
O138        O  0.46770418  0.06190942  0.22542225    -0.79300
C139        C  0.11712494  0.36325315  0.45780378     0.31700
C140        C  0.11742682  0.36426971  0.03717057     0.31700
C141        C  0.10668512  0.39079074  0.47706071    -0.04500
C142        C  0.09930928  0.34068882  0.47821927    -0.05300
C143        C  0.14655623  0.35957612  0.47709882    -0.05100
C144        C  0.10669408  0.39098855  0.01715186    -0.04500
C145        C  0.09956449  0.34077680  0.01823596    -0.05200
C146        C  0.14645743  0.35961044  0.01753990    -0.05100
C147        C  0.09498714  0.41613404  0.02897759    -0.30500
N148        N  0.08786611  0.43121075  0.49735622     0.16000
C149        C  0.09547160  0.41640459  0.46571188    -0.30500
H150        H  0.09245553  0.42386231  0.43667108     0.17900
C151        C  0.08285471  0.31833189  0.02990822    -0.29500
N152        N  0.07196336  0.30552126  0.49828091     0.14700
C153        C  0.08213392  0.31890028  0.46661696    -0.29500
C154        C  0.17083020  0.34592468  0.02899565    -0.29800
N155        N  0.18635550  0.33928175  0.49761439     0.15200
H156        H  0.17555554  0.33869997  0.05778333     0.17800
C157        C  0.17202189  0.34759738  0.46595476    -0.29800
H158        H  0.17918698  0.34360196  0.43701952     0.17800
H159        H  0.07724276  0.31328128  0.43725709     0.17800
H160        H  0.09040841  0.42224835  0.05827113     0.17900
H161        H  0.07828986  0.31213089  0.05918834     0.17800
C162        C  0.11746536  0.36444577  0.20789106     0.31700
C163        C  0.11774541  0.36416589  0.28730720     0.31700
C164        C  0.10872311  0.39200799  0.22765601    -0.04500
C165        C  0.09824840  0.34247444  0.22763248    -0.05300
C166        C  0.14610317  0.35776124  0.22704163    -0.05100
C167        C  0.10894048  0.39214157  0.26781457    -0.04500
C168        C  0.09818986  0.34274012  0.26765831    -0.05200
C169        C  0.14669940  0.35856089  0.26733384    -0.05100
C170        C  0.09763846  0.41773424  0.27892495    -0.30500
N171        N  0.08974458  0.43220701  0.24711938     0.16000
C172        C  0.09675352  0.41694636  0.21563941    -0.30500
H173        H  0.09139157  0.42252805  0.18639258     0.17900
C174        C  0.07985691  0.32198808  0.27989982    -0.29500
N175        N  0.06923225  0.30878551  0.24854277     0.14700
C176        C  0.08068173  0.32068840  0.21658743    -0.29500
C177        C  0.17275533  0.34789306  0.27819461    -0.29800
N178        N  0.18639633  0.33827178  0.24651689     0.15200
H179        H  0.18044066  0.34506189  0.30716327     0.17800
C180        C  0.17007207  0.34350413  0.21540423    -0.29800
H181        H  0.17453450  0.33596769  0.18671671     0.17800
H182        H  0.07625380  0.31398447  0.18753842     0.17800
H183        H  0.09423271  0.42512570  0.30790586     0.17900
H184        H  0.07479406  0.31667317  0.30937989     0.17800
C185        C  0.17435970  0.11877316  0.03810936     0.31700
C186        C  0.17360443  0.12055992  0.45886303     0.31700
C187        C  0.18365771  0.14668673  0.01942608    -0.04500
C188        C  0.19316474  0.09726368  0.01751651    -0.05300
C189        C  0.14546645  0.11256462  0.01896565    -0.05100
C190        C  0.18257118  0.14811025  0.47941500    -0.04500
C191        C  0.19306827  0.09857410  0.47752729    -0.05200
C192        C  0.14459981  0.11452874  0.47865415    -0.05100
C193        C  0.19371170  0.17413498  0.46926288    -0.30500
N194        N  0.20377991  0.18697301  0.50124605     0.16000
C195        C  0.19771466  0.17046129  0.03205060    -0.30500
H196        H  0.20457247  0.17462402  0.06111834     0.17900
C197        C  0.21193752  0.07878790  0.46437866    -0.29500
N198        N  0.22292780  0.06522058  0.49516272     0.14700
C199        C  0.21136197  0.07593574  0.02768399    -0.29500
C200        C  0.11959457  0.10158684  0.46723479    -0.29800
N201        N  0.10715683  0.08939876  0.49822497     0.15200
H202        H  0.11217053  0.09883806  0.43813985     0.17800
C203        C  0.12322719  0.09504630  0.02942971    -0.29800
H204        H  0.12000870  0.08557536  0.05741052     0.17800
H205        H  0.21647623  0.06907318  0.05647856     0.17800
H206        H  0.19632940  0.18246699  0.44055271     0.17900
H207        H  0.21747932  0.07466540  0.43473520     0.17800
C208        C  0.17486490  0.12055648  0.28821684     0.31700
C209        C  0.17553664  0.12004822  0.20883032     0.31700
C210        C  0.18217035  0.14885483  0.26814601    -0.04500
C211        C  0.19564465  0.10016441  0.26887965    -0.05300
C212        C  0.14634471  0.11292720  0.26835934    -0.05100
C213        C  0.18267922  0.14831136  0.22795792    -0.04500
C214        C  0.19577512  0.09962213  0.22885209    -0.05200
C215        C  0.14732091  0.11162245  0.22809842    -0.05100
C216        C  0.19548755  0.17287752  0.21557283    -0.30500
N217        N  0.20234960  0.18845345  0.24679725     0.16000
C218        C  0.19365874  0.17450923  0.27875413    -0.30500
H219        H  0.19721119  0.18210494  0.30757338     0.17900
C220        C  0.21390951  0.07853180  0.21788399    -0.29500
N221        N  0.22545359  0.06712228  0.24988231     0.14700
C222        C  0.21440016  0.08003788  0.28123565    -0.29500
C223        C  0.12533627  0.09426104  0.21686231    -0.29800
N224        N  0.10929876  0.08782733  0.24790330     0.15200
H225        H  0.12203329  0.08572128  0.18842283     0.17800
C226        C  0.12142082  0.09955577  0.27933588    -0.29800
H227        H  0.11358969  0.09655120  0.30826513     0.17800
H228        H  0.21927906  0.07479397  0.31071006     0.17800
H229        H  0.20209721  0.17760744  0.18647008     0.17900
H230        H  0.21850975  0.07183748  0.18883059     0.17800
O231        O  0.25015397  0.26756276  0.41205775    -0.76800
C232        C  0.22300498  0.21049092  0.50104785     0.84300
O233        O  0.23040220  0.32612760  0.02202302    -0.77900
O234        O  0.27961579  0.24833567  0.08547477    -0.79400
O235        O  0.33780347  0.24577769  0.47521553    -0.79200
O236        O  0.29704341  0.27508117  0.41023552    -0.77800
Zn237      Zn  0.23912701  0.26796845  0.46701076     1.55700
O238        O  0.31687372  0.21734275  0.01781248    -0.79200
Cd239      Cd  0.30841354  0.27759702  0.46614000     1.59700
Cd240      Cd  0.26889300  0.30622872  0.03020091     1.59600
O241        O  0.32734489  0.31700284  0.47421718    -0.79200
O242        O  0.27331435  0.27216056  0.49754557    -1.89700
Cd243      Cd  0.27861131  0.23740351  0.02906476     1.59900
O244        O  0.30104867  0.33512434  0.02124325    -0.79100
O245        O  0.24481968  0.20970314  0.02255785    -0.77800
C246        C  0.21074285  0.32136699  0.49790291     0.84700
C247        C  0.27336927  0.27084142  0.39398515     0.84400
O248        O  0.21846140  0.23115683  0.47843801    -0.76700
C249        C  0.33781502  0.22371696  0.99622246     0.85200
O250        O  0.21188283  0.30061219  0.47471645    -0.76800
C251        C  0.32183761  0.33672290  0.99791469     0.85300
C252        C  0.27570082  0.27150126  0.10288265     0.85700
O253        O  0.27086944  0.29472348  0.08606876    -0.79300
O254        O  0.21884699  0.23191909  0.22397441    -0.76800
C255        C  0.21115447  0.32084143  0.24684780     0.84300
O256        O  0.29974861  0.27434959  0.16081502    -0.77900
O257        O  0.30146911  0.33477210  0.27164897    -0.79400
O258        O  0.27585223  0.24727276  0.33565582    -0.79200
O259        O  0.24329078  0.21009016  0.26972777    -0.77800
Zn260      Zn  0.24038001  0.26841041  0.21534143     1.55700
O261        O  0.27015588  0.29414707  0.33593581    -0.79200
Cd262      Cd  0.27733827  0.23674683  0.27901756     1.59700
Cd263      Cd  0.30967148  0.27652473  0.21752880     1.59600
O264        O  0.31560442  0.21577541  0.26974261    -0.79200
O265        O  0.27379016  0.27174079  0.24750107    -1.89700
Cd266      Cd  0.26908827  0.30583608  0.28006232     1.59900
O267        O  0.33782211  0.24389076  0.22788114    -0.79100
O268        O  0.23048641  0.32552457  0.27148360    -0.77800
C269        C  0.27610294  0.27148822  0.14390102     0.84700
C270        C  0.22226289  0.21128316  0.24689275     0.84400
O271        O  0.21293776  0.30053217  0.22307846    -0.76700
C272        C  0.27289417  0.27064575  0.35293383     0.85200
O273        O  0.25256396  0.26914656  0.16132675    -0.76800
C274        C  0.33699884  0.22175136  0.24871860     0.85300
C275        C  0.32297391  0.33585004  0.24943958     0.85700
O276        O  0.32906169  0.31566686  0.22670564    -0.79300
C277        C  0.16161080  0.09774270  0.39366880     0.25300
C278        C  0.17538243  0.11934067  0.41452892    -0.22800
C279        C  0.19681511  0.13386294  0.39394560     0.20200
C280        C  0.19722062  0.13379082  0.35360285     0.25300
C281        C  0.17633586  0.11900975  0.33259422    -0.22700
C282        C  0.16227230  0.09746471  0.35335286     0.20200
F283        F  0.15288993  0.07391245  0.33528152    -0.12700
F284        F  0.15107862  0.07466457  0.41190614    -0.15100
F285        F  0.22052626  0.14439088  0.33575642    -0.15100
F286        F  0.21992634  0.14420794  0.41230493    -0.12700
C287        C  0.20080955  0.11824472  0.10282108     0.25300
C288        C  0.17499267  0.11980661  0.08240615    -0.22800
C289        C  0.15063600  0.12729241  0.10377558     0.20200
C290        C  0.15109381  0.12802745  0.14392753     0.25300
C291        C  0.17580702  0.12107670  0.16455845    -0.22700
C292        C  0.20122825  0.11903743  0.14319906     0.23000
F293        F  0.22674055  0.11955446  0.16110347    -0.12700
F294        F  0.22594221  0.11762389  0.08379384    -0.15100
F295        F  0.12762927  0.13760411  0.16230748    -0.15100
F296        F  0.12668070  0.13619646  0.08613340    -0.12700
C297        C  0.13093490  0.34115238  0.35221472     0.25300
C298        C  0.11603167  0.36208874  0.33160579    -0.22800
C299        C  0.09408109  0.37538465  0.35239706     0.20200
C300        C  0.09365214  0.37481250  0.39269745     0.25300
C301        C  0.11533317  0.36121796  0.41349871    -0.22700
C302        C  0.13058726  0.34072699  0.39259347     0.20200
F303        F  0.14187586  0.31805398  0.41066933    -0.12700
F304        F  0.14253457  0.31883097  0.33371455    -0.15100
F305        F  0.06983912  0.38380894  0.41073152    -0.15100
F306        F  0.07087180  0.38542781  0.33410761    -0.12700
C307        C  0.14065946  0.37604787  0.10230615     0.25300
C308        C  0.11693592  0.36624359  0.08144821    -0.22800
C309        C  0.09152426  0.36246849  0.10242703     0.20200
C310        C  0.09147729  0.36269931  0.14279608     0.25300
C311        C  0.11693055  0.36613628  0.16360578    -0.22700
C312        C  0.14074311  0.37577122  0.14259414     0.20200
F313        F  0.16357684  0.38690663  0.16080636    -0.12700
F314        F  0.16311768  0.38805218  0.08404905    -0.15100
F315        F  0.06614817  0.36139889  0.16127519    -0.15100
F316        F  0.06630565  0.36019389  0.08401986    -0.12700
C317        C  0.26495902  0.00137397  0.22578166     0.25300
C318        C  0.28929899  0.00462146  0.24847053    -0.22800
C319        C  0.29219201  0.02847637  0.27200164     0.20200
C320        C  0.27103268  0.04890646  0.27275229     0.25300
C321        C  0.24664990  0.04564352  0.25014668    -0.22700
C322        C  0.24372439  0.02174492  0.22666668     0.20200
F323        F  0.22001354  0.01788758  0.20527751    -0.12700
F324        F  0.26143512  0.47807479  0.20366965    -0.15100
F325        F  0.27480245  0.07241064  0.29438742    -0.15100
F326        F  0.31594011  0.03235673  0.29330912    -0.12700
C327        C  0.29268642  0.03095262  0.47629806     0.25300
C328        C  0.28895936  0.00512037  0.49539464    -0.22800
C329        C  0.26294280  0.49883588  0.51308575     0.20200
C330        C  0.24098025  0.01845145  0.51238699     0.25300
C331        C  0.24483849  0.04450613  0.49394339    -0.22700
C332        C  0.27071020  0.05059679  0.47559763     0.20200
F333        F  0.27493496  0.07595345  0.45829940    -0.12700
F334        F  0.31788839  0.03737385  0.45944104    -0.15100
F335        F  0.21574690  0.01193602  0.52905187    -0.15100
F336        F  0.25873440  0.47341843  0.03020226    -0.12700
C337        C  0.33901975  0.41990465  0.39328887     0.25300
C338        C  0.36074850  0.43379720  0.41384119    -0.22800
C339        C  0.37596386  0.45450689  0.39297784     0.20200
C340        C  0.37570170  0.45464331  0.35262466     0.25300
C341        C  0.36049543  0.43388189  0.33205134    -0.22700
C342        C  0.33890000  0.41993727  0.35297340     0.20200
F343        F  0.31586869  0.40918795  0.33480568    -0.12700
F344        F  0.31609719  0.40909951  0.41186582    -0.15100
F345        F  0.38746586  0.47702190  0.33411042    -0.15100
F346        F  0.38838208  0.47653860  0.41129850    -0.12700
C347        C  0.37457450  0.45480120  0.10276491     0.25300
C348        C  0.35957408  0.43403466  0.08193195    -0.22800
C349        C  0.33865600  0.41919029  0.10302962     0.20200
C350        C  0.33918294  0.41863287  0.14340101     0.25300
C351        C  0.36042731  0.43321070  0.16403232    -0.22700
C352        C  0.37491706  0.45445780  0.14315637     0.20200
F353        F  0.38672361  0.47678219  0.16154294    -0.12700
F354        F  0.38633068  0.47726544  0.08444459    -0.15100
F355        F  0.31687453  0.40667179  0.16201050    -0.15100
F356        F  0.31563542  0.40819183  0.08514903    -0.12700
C357        C  0.03140421  0.24135572  0.22576199     0.25300
C358        C  0.50668684  0.24415806  0.24792822    -0.22800
C359        C  0.50286678  0.26843898  0.27043941     0.20200
C360        C  0.02353759  0.28959483  0.27086634     0.25300
C361        C  0.04837386  0.28671595  0.24889086    -0.22700
C362        C  0.05219560  0.26244517  0.22639442     0.20200
F363        F  0.07638806  0.25894595  0.20579345    -0.12700
F364        F  0.03564307  0.21787414  0.20430270    -0.15100
F365        F  0.01888276  0.31336400  0.29161215    -0.15100
F366        F  0.47863762  0.27203580  0.29096284    -0.12700
C367        C  0.02732189  0.28523552  0.47400936     0.25300
C368        C  0.05105976  0.28334409  0.49821069    -0.22800
C369        C  0.05363294  0.25992390  0.02280442     0.20200
C370        C  0.03285006  0.23871293  0.02300952     0.25300
C371        C  0.00924395  0.24062673  0.49861195    -0.22700
C372        C  0.50658827  0.26416807  0.47434170     0.20200
F373        F  0.48327749  0.26730233  0.45198433    -0.12700
F374        F  0.02363507  0.30807119  0.45102603    -0.15100
F375        F  0.03604640  0.21600478  0.04635274    -0.15100
F376        F  0.07660078  0.25728392  0.04589702    -0.12700
C377        C  0.41809447  0.15141561  0.39301473     0.25300
C378        C  0.42765349  0.17508576  0.41407355    -0.22800
C379        C  0.43129009  0.20046676  0.39333065     0.20200
C380        C  0.43088042  0.20068239  0.35295887     0.25300
C381        C  0.42735335  0.17542752  0.33195379    -0.22700
C382        C  0.41802403  0.15157783  0.35281379     0.20200
F383        F  0.40663323  0.12894855  0.33459852    -0.12700
F384        F  0.40649294  0.12869966  0.41093962    -0.15100
F385        F  0.43218411  0.22594749  0.33468525    -0.15100
F386        F  0.43361702  0.22545864  0.41202208    -0.12700
C387        C  0.41780462  0.19782693  0.14312034     0.25300
C388        C  0.43122244  0.17612555  0.16398474    -0.22800
C389        C  0.45157624  0.16060119  0.14305490     0.20200
C390        C  0.45119388  0.16023377  0.10267663     0.25300
C391        C  0.43062967  0.17561104  0.08198521    -0.22700
C392        C  0.41748318  0.19757405  0.10279904     0.20200
F393        F  0.40804471  0.22100559  0.08460063    -0.12700
F394        F  0.40858217  0.22140103  0.16119320    -0.15100
F395        F  0.47323215  0.14790714  0.08417946    -0.15100
F396        F  0.47416232  0.14897924  0.16106207    -0.12700
C397        C  0.42924819  0.17451699  0.95834303     0.31700
C398        C  0.42884624  0.17401121  0.53764117     0.31700
C399        C  0.43282665  0.14539667  0.97754036    -0.04500
C400        C  0.45297267  0.19129167  0.97803437    -0.05300
C401        C  0.40260349  0.18619653  0.97775379    -0.05100
C402        C  0.43167200  0.14469075  0.51793359    -0.04500
C403        C  0.45254355  0.19127179  0.51805647    -0.05200
C404        C  0.40176134  0.18533928  0.51778837    -0.05100
C405        C  0.44270599  0.11880105  0.52889125    -0.30500
N406        N  0.45277069  0.10540326  0.49733548     0.16000
C407        C  0.44782395  0.12184889  0.96637793    -0.30500
H408        H  0.45650685  0.11802466  0.93806298     0.17900
C409        C  0.47420284  0.20868931  0.53012293    -0.29500
N410        N  0.48773866  0.21906813  0.99863443     0.14700
C411        C  0.47528329  0.20817566  0.96680263    -0.29500
C412        C  0.37581954  0.19661282  0.52833227    -0.29800
N413        N  0.36246678  0.20612210  0.49637492     0.15200
H414        H  0.36757261  0.19895884  0.55715211     0.17800
C415        C  0.37858108  0.19981450  0.96530847    -0.29800
H416        H  0.37355747  0.20544600  0.93599940     0.17800
H417        H  0.48172490  0.21281385  0.93762689     0.17800
H418        H  0.44583981  0.11130197  0.55787757     0.17900
H419        H  0.47895501  0.21438136  0.55950167     0.17800
C420        C  0.42936267  0.17464533  0.70833815     0.31700
C421        C  0.42900048  0.17493647  0.78770109     0.31700
C422        C  0.43401089  0.14561519  0.72819320    -0.04500
C423        C  0.45160234  0.19340241  0.72804883    -0.05300
C424        C  0.40147911  0.18427423  0.72793125    -0.05100
C425        C  0.43489798  0.14623655  0.76849825    -0.04500
C426        C  0.45161714  0.19342217  0.76809368    -0.05200
C427        C  0.40158048  0.18448355  0.76804985    -0.05100
C428        C  0.44975429  0.12264608  0.77986899    -0.30500
N429        N  0.45498773  0.10636034  0.74878747     0.16000
C430        C  0.44496093  0.11974628  0.71723564    -0.30500
H431        H  0.44782010  0.11207531  0.68829903     0.17900
C432        C  0.47318100  0.21113006  0.77946366    -0.29500
N433        N  0.48541843  0.22248442  0.74771731     0.14700
C434        C  0.47266401  0.21161966  0.71611328    -0.29500
C435        C  0.37651773  0.19647920  0.78018322    -0.29800
N436        N  0.36115049  0.20348523  0.74876889     0.15200
H437        H  0.37088924  0.20172258  0.80947253     0.17800
C438        C  0.37576445  0.19563050  0.71693923    -0.29800
H439        H  0.36833034  0.19899887  0.68797932     0.17800
H440        H  0.47779792  0.21719814  0.68674678     0.17800
H441        H  0.45782349  0.11849959  0.80839309     0.17900
H442        H  0.47960441  0.21568912  0.80859710     0.17800
C443        C  0.36226046  0.43213230  0.95805237     0.31700
C444        C  0.36137490  0.43236058  0.53753265     0.31700
C445        C  0.39099407  0.43796523  0.97790060    -0.04500
C446        C  0.34270532  0.45345198  0.97739230    -0.05300
C447        C  0.35369918  0.40401032  0.97764414    -0.05100
C448        C  0.39049404  0.43825010  0.51821877    -0.04500
C449        C  0.34209136  0.45346978  0.51730213    -0.05200
C450        C  0.35314888  0.40418157  0.51792519    -0.05100
C451        C  0.41722860  0.44639161  0.52990287    -0.30500
N452        N  0.43351020  0.45154126  0.99848078     0.16000
C453        C  0.41815433  0.44546214  0.96669739    -0.30500
H454        H  0.42573109  0.44852552  0.93765398     0.17900
C455        C  0.32235691  0.47308246  0.52843063    -0.29500
N456        N  0.31140379  0.48501345  0.99632323     0.14700
C457        C  0.32369875  0.47331176  0.96500750    -0.29500
C458        C  0.34414945  0.37771963  0.52935128    -0.29800
N459        N  0.33863493  0.36197707  0.99778550     0.15200
H460        H  0.34105881  0.37029614  0.55841583     0.17800
C461        C  0.34533218  0.37731598  0.96615230    -0.29800
H462        H  0.34276960  0.36988687  0.93702206     0.17800
H463        H  0.31846762  0.47827037  0.93552278     0.17800
H464        H  0.42418656  0.44995910  0.55903553     0.17900
H465        H  0.31608388  0.47805912  0.55756173     0.17800
C466        C  0.36221267  0.43149134  0.70837965     0.31700
C467        C  0.36225922  0.43188601  0.78784035     0.31700
C468        C  0.39094693  0.43836890  0.72780405    -0.04500
C469        C  0.34211020  0.45214598  0.72809601    -0.05300
C470        C  0.35471437  0.40311330  0.72831858    -0.05100
C471        C  0.39107885  0.43838628  0.76810846    -0.04500
C472        C  0.34226804  0.45238801  0.76796207    -0.05200
C473        C  0.35443166  0.40346231  0.76862732    -0.05100
C474        C  0.41809623  0.44641260  0.77931512    -0.30500
N475        N  0.43367013  0.45236871  0.74750947     0.16000
C476        C  0.41767004  0.44676813  0.71611781    -0.30500
H477        H  0.42485877  0.44996584  0.68694410     0.17900
C478        C  0.32282853  0.47197459  0.77977247    -0.29500
N479        N  0.31087265  0.48353072  0.74812990     0.14700
C480        C  0.32242644  0.47159249  0.71637244    -0.29500
C481        C  0.34530321  0.37713114  0.78050040    -0.29800
N482        N  0.33985792  0.36109189  0.74916570     0.15200
H483        H  0.34184577  0.37014954  0.80970887     0.17800
C484        C  0.34646463  0.37625560  0.71729888    -0.29800
H485        H  0.34375649  0.36862400  0.68830163     0.17800
H486        H  0.31698702  0.47679648  0.68703914     0.17800
H487        H  0.42549640  0.44965229  0.80833782     0.17900
H488        H  0.31739596  0.47713621  0.80915035     0.17800
O489        O  0.47865425  0.46428840  0.97550577    -0.76800
C490        C  0.02143706  0.01775020  0.89294006     0.84300
O491        O  0.07677844  0.47648366  0.51918252    -0.77900
O492        O  0.06313891  0.07456904  0.97463702    -0.79400
O493        O  0.46624814  0.06112618  0.52072368    -0.79200
O494        O  0.45861834  0.49028751  0.52121008    -0.77800
Zn495      Zn  0.01668661  0.48399959  0.96594647     1.55700
O496        O  0.99196311  0.08082739  0.97414403    -0.79200
Cd497      Cd  0.48686630  0.02293849  0.52901174     1.59700
Cd498      Cd  0.05650082  0.01477098  0.52769625     1.59600
O499        O  0.49850600  0.02184482  0.58469882    -0.79200
O500        O  0.02127563  0.01812866  0.99649502    -1.89700
Cd501      Cd  0.02519652  0.05311833  0.96540687     1.59900
O502        O  0.04554060  0.01605373  0.58392830    -0.79100
O503        O  0.02434572  0.04136755  0.90971520    -0.77800
C504        C  0.07051012  0.45594016  0.99721368     0.84700
C505        C  0.45825716  0.46918274  0.99865575     0.84400
O506        O  0.01827448  0.49454758  0.91082420    -0.76700
C507        C  0.47104199  0.08129347  0.49737020     0.85200
O508        O  0.04870915  0.45647582  0.97563553    -0.76800
C509        C  0.02214446  0.01901097  0.60155847     0.85300
C510        C  0.08380889  0.06989502  0.99722847     0.85700
O511        O  0.08433116  0.04825877  0.51900938    -0.79300
O512        O  0.05004304  0.45679181  0.76880000    -0.76800
C513        C  0.02175194  0.01771491  0.85155071     0.84300
O514        O  0.45888268  0.49123861  0.72486368    -0.77900
O515        O  0.99428221  0.08152001  0.77090009    -0.79400
O516        O  0.08550532  0.04802797  0.72484709    -0.79200
O517        O  0.07769812  0.47695384  0.72456060    -0.77800
Zn518      Zn  0.01758673  0.48398103  0.77846588     1.55700
O519        O  0.06519027  0.07319455  0.77119388    -0.79200
Cd520      Cd  0.05726232  0.01498927  0.71595927     1.59700
Cd521      Cd  0.48765812  0.02346930  0.71629669     1.59600
O522        O  0.04593884  0.01621880  0.65989785    -0.79200
O523        O  0.02226980  0.01818374  0.74795634    -1.89700
Cd524      Cd  0.02668442  0.05290905  0.77926785     1.59900
O525        O  0.49890240  0.02218269  0.66029464    -0.79100
O526        O  0.02495588  0.04129622  0.83477203    -0.77800
C527        C  0.45859286  0.46983085  0.74698969     0.84700
C528        C  0.07183911  0.45651229  0.74699820     0.84400
O529        O  0.01880348  0.49452357  0.83366218    -0.76700
C530        C  0.08560106  0.06882945  0.74800981     0.85200
O531        O  0.47932695  0.46437187  0.76924064    -0.76800
C532        C  0.02236281  0.01915202  0.64284987     0.85300
C533        C  0.47302866  0.08209550  0.74843441     0.85700
O534        O  0.46770424  0.06190964  0.72542165    -0.79300
C535        C  0.11712487  0.36325329  0.95780376     0.31700
C536        C  0.11742747  0.36427004  0.53717061     0.31700
C537        C  0.10668557  0.39079101  0.97706085    -0.04500
C538        C  0.09930864  0.34068916  0.97821874    -0.05300
C539        C  0.14655586  0.35957545  0.97709909    -0.05100
C540        C  0.10669389  0.39098848  0.51715171    -0.04500
C541        C  0.09956574  0.34077651  0.51823653    -0.05200
C542        C  0.14645807  0.35961138  0.51753973    -0.05100
C543        C  0.09498670  0.41613390  0.52897734    -0.30500
N544        N  0.08786695  0.43121113  0.99735651     0.16000
C545        C  0.09547246  0.41640504  0.96571215    -0.30500
H546        H  0.09245650  0.42386287  0.93667128     0.17900
C547        C  0.08285628  0.31833158  0.52990947    -0.29500
N548        N  0.07196256  0.30552118  0.99827931     0.14700
C549        C  0.08213410  0.31890018  0.96661579    -0.29500
C550        C  0.17083049  0.34592489  0.52899533    -0.29800
N551        N  0.18635551  0.33928202  0.99761478     0.15200
H552        H  0.17555568  0.33870001  0.55778284     0.17800
C553        C  0.17202188  0.34759750  0.96595506    -0.29800
H554        H  0.17918718  0.34360243  0.93701986     0.17800
H555        H  0.07724479  0.31328059  0.93725566     0.17800
H556        H  0.09040825  0.42224840  0.55827090     0.17900
H557        H  0.07829183  0.31213043  0.55918967     0.17800
C558        C  0.11746492  0.36444640  0.70789121     0.31700
C559        C  0.11774535  0.36416686  0.78730734     0.31700
C560        C  0.10872378  0.39200904  0.72765603    -0.04500
C561        C  0.09824716  0.34247586  0.72763299    -0.05300
C562        C  0.14610254  0.35776089  0.72704168    -0.05100
C563        C  0.10894130  0.39214276  0.76781462    -0.04500
C564        C  0.09818893  0.34274170  0.76765883    -0.05200
C565        C  0.14669900  0.35856079  0.76733379    -0.05100
C566        C  0.09763942  0.41773549  0.77892493    -0.30500
N567        N  0.08974547  0.43220816  0.74711934     0.16000
C568        C  0.09675421  0.41694739  0.71563940    -0.30500
H569        H  0.09139188  0.42252887  0.68639262     0.17900
C570        C  0.07985596  0.32198983  0.77990086    -0.29500
N571        N  0.06923086  0.30878720  0.74854414     0.14700
C572        C  0.08068010  0.32068994  0.71658848    -0.29500
C573        C  0.17275516  0.34789350  0.77819442    -0.29800
N574        N  0.18639610  0.33827215  0.74651668     0.15200
H575        H  0.18044077  0.34506281  0.80716304     0.17800
C576        C  0.17007161  0.34350414  0.71540412    -0.29800
H577        H  0.17453409  0.33596777  0.68671654     0.17800
H578        H  0.07625211  0.31398573  0.68753961     0.17800
H579        H  0.09423353  0.42512693  0.80790589     0.17900
H580        H  0.07479377  0.31667479  0.80938107     0.17800
C581        C  0.17435940  0.11877312  0.53810935     0.31700
C582        C  0.17360507  0.12055998  0.95886307     0.31700
C583        C  0.18365737  0.14668668  0.51942593    -0.04500
C584        C  0.19316437  0.09726360  0.51751635    -0.05300
C585        C  0.14546607  0.11256461  0.51896585    -0.05100
C586        C  0.18257167  0.14811033  0.97941514    -0.04500
C587        C  0.19306885  0.09857420  0.97752747    -0.05200
C588        C  0.14460037  0.11452866  0.97865393    -0.05100
C589        C  0.19371205  0.17413515  0.96926322    -0.30500
N590        N  0.20378005  0.18697322  0.00124645     0.16000
C591        C  0.19771450  0.17046117  0.53205026    -0.30500
H592        H  0.20457246  0.17462391  0.56111799     0.17900
C593        C  0.21193816  0.07878803  0.96437903    -0.29500
N594        N  0.22292830  0.06522071  0.99516317     0.14700
C595        C  0.21136171  0.07593567  0.52768371    -0.29500
C596        C  0.11959526  0.10158654  0.96723440    -0.29800
N597        N  0.10715735  0.08939861  0.99822462     0.15200
H598        H  0.11217147  0.09883751  0.93813947     0.17800
C599        C  0.12322684  0.09504624  0.52942999    -0.29800
H600        H  0.12000850  0.08557515  0.55741062     0.17800
H601        H  0.21647613  0.06907316  0.55647811     0.17800
H602        H  0.19632977  0.18246727  0.94055300     0.17900
H603        H  0.21748014  0.07466556  0.93473556     0.17800
C604        C  0.17486571  0.12055634  0.78821699     0.31700
C605        C  0.17553721  0.12004819  0.70883044     0.31700
C606        C  0.18217071  0.14885481  0.76814620    -0.04500
C607        C  0.19564565  0.10016459  0.76887964    -0.05300
C608        C  0.14634560  0.11292664  0.76835966    -0.05100
C609        C  0.18267946  0.14831140  0.72795809    -0.04500
C610        C  0.19577604  0.09962236  0.72885205    -0.05200
C611        C  0.14732168  0.11162201  0.72809875    -0.05100
C612        C  0.19548776  0.17287760  0.71557302    -0.30500
N613        N  0.20234983  0.18845351  0.74679748     0.16000
C614        C  0.19365908  0.17450921  0.77875431    -0.30500
H615        H  0.19721163  0.18210490  0.80757368     0.17900
C616        C  0.21391043  0.07853205  0.71788388    -0.29500
N617        N  0.22545452  0.06712251  0.74988219     0.14700
C618        C  0.21440113  0.08003806  0.78123556    -0.29500
C619        C  0.12533691  0.09426077  0.71686260    -0.29800
N620        N  0.10929945  0.08782706  0.74790366     0.15200
H621        H  0.12203374  0.08572125  0.68842313     0.17800
C622        C  0.12142171  0.09955522  0.77933628    -0.29800
H623        H  0.11359069  0.09655053  0.80826564     0.17800
H624        H  0.21927998  0.07479404  0.81070995     0.17800
H625        H  0.20209738  0.17760755  0.68647035     0.17900
H626        H  0.21851060  0.07183771  0.68883047     0.17800
O627        O  0.25015362  0.26756275  0.91205790    -0.76800
C628        C  0.22300501  0.21049122  0.00104837     0.84300
O629        O  0.23040205  0.32612712  0.52202280    -0.77900
O630        O  0.27961558  0.24833523  0.58547490    -0.79400
O631        O  0.33780337  0.24577784  0.97521512    -0.79200
O632        O  0.29704307  0.27508110  0.91023539    -0.77800
Zn633      Zn  0.23912694  0.26796873  0.96701104     1.55700
O634        O  0.31687381  0.21734241  0.51781265    -0.79200
Cd635      Cd  0.30841347  0.27759725  0.96613969     1.59700
Cd636      Cd  0.26889281  0.30622829  0.53020096     1.59600
O637        O  0.32734481  0.31700320  0.97421631    -0.79200
O638        O  0.27331438  0.27216093  0.99754555    -1.89700
Cd639      Cd  0.27861127  0.23740311  0.52906476     1.59900
O640        O  0.30104861  0.33512395  0.52124400    -0.79100
O641        O  0.24481957  0.20970284  0.52255751    -0.77800
C642        C  0.21074296  0.32136740  0.99790320     0.84700
C643        C  0.27336889  0.27084131  0.89398517     0.84400
O644        O  0.21846130  0.23115717  0.97843864    -0.76700
C645        C  0.33781517  0.22371677  0.49622279     0.85200
O646        O  0.21188292  0.30061258  0.97471679    -0.76800
C647        C  0.32183768  0.33672248  0.49791565     0.85300
C648        C  0.27570040  0.27150083  0.60288271     0.85700
O649        O  0.27086892  0.29472298  0.58606872    -0.79300
O650        O  0.21884671  0.23191946  0.72397515    -0.76800
C651        C  0.21115430  0.32084189  0.74684763     0.84300
O652        O  0.29974818  0.27434998  0.66081499    -0.77900
O653        O  0.30146900  0.33477239  0.77165011    -0.79400
O654        O  0.27585232  0.24727282  0.83565570    -0.79200
O655        O  0.24329126  0.21009012  0.76972739    -0.77800
Zn656      Zn  0.24037976  0.26841068  0.71534165     1.55700
O657        O  0.27015505  0.29414702  0.83593598    -0.79200
Cd658      Cd  0.27733848  0.23674712  0.77901731     1.59700
Cd659      Cd  0.30967110  0.27652547  0.71752870     1.59600
O660        O  0.31560488  0.21577619  0.76974209    -0.79200
O661        O  0.27378995  0.27174121  0.74750117    -1.89700
Cd662      Cd  0.26908793  0.30583640  0.78006265     1.59900
O663        O  0.33782223  0.24389195  0.72788083    -0.79100
O664        O  0.23048618  0.32552504  0.77148354    -0.77800
C665        C  0.27610254  0.27148800  0.64390107     0.84700
C666        C  0.22226303  0.21128330  0.74689294     0.84400
O667        O  0.21293763  0.30053260  0.72307834    -0.76700
C668        C  0.27289372  0.27064569  0.85293386     0.85200
O669        O  0.25256361  0.26914619  0.66132689    -0.76800
C670        C  0.33699923  0.22175246  0.74871811     0.85300
C671        C  0.32297353  0.33585055  0.74944025     0.85700
O672        O  0.32906096  0.31566766  0.72670567    -0.79300
C673        C  0.16161204  0.09774237  0.89366896     0.25300
C674        C  0.17538326  0.11934065  0.91452900    -0.22800
C675        C  0.19681579  0.13386317  0.89394569     0.20200
C676        C  0.19722139  0.13379089  0.85360294     0.25300
C677        C  0.17633681  0.11900955  0.83259436    -0.22700
C678        C  0.16227357  0.09746432  0.85335302     0.20200
F679        F  0.15289149  0.07391193  0.83528168    -0.12700
F680        F  0.15108020  0.07466415  0.91190644    -0.15100
F681        F  0.22052699  0.14439105  0.83575652    -0.15100
F682        F  0.21992685  0.14420851  0.91230504    -0.12700
C683        C  0.20080956  0.11824513  0.60282084     0.25300
C684        C  0.17499255  0.11980664  0.58240618    -0.22800
C685        C  0.15063588  0.12729204  0.60377590     0.20200
C686        C  0.15109393  0.12802715  0.64392785     0.25300
C687        C  0.17580735  0.12107672  0.66455853    -0.22700
C688        C  0.20122848  0.11903777  0.64319885     0.23000
F689        F  0.22674088  0.11955498  0.66110302    -0.12700
F690        F  0.22594210  0.11762463  0.58379329    -0.15100
F691        F  0.12762938  0.13760355  0.66230802    -0.15100
F692        F  0.12668029  0.13619569  0.58613405    -0.12700
C693        C  0.13093500  0.34115326  0.85221462     0.25300
C694        C  0.11603181  0.36208976  0.83160588    -0.22800
C695        C  0.09408132  0.37538572  0.85239725     0.20200
C696        C  0.09365229  0.37481325  0.89269762     0.25300
C697        C  0.11533327  0.36121849  0.91349873    -0.22700
C698        C  0.13058739  0.34072768  0.89259332     0.20200
F699        F  0.14187602  0.31805458  0.91066896    -0.12700
F700        F  0.14253454  0.31883187  0.83371429    -0.15100
F701        F  0.06983933  0.38380976  0.91073178    -0.15100
F702        F  0.07087222  0.38542937  0.83410785    -0.12700
C703        C  0.14066002  0.37604783  0.60230655     0.25300
C704        C  0.11693642  0.36624409  0.58144826    -0.22800
C705        C  0.09152454  0.36246939  0.60242674     0.20200
C706        C  0.09147722  0.36270017  0.64279581     0.25300
C707        C  0.11693035  0.36613683  0.66360588    -0.22700
C708        C  0.14074321  0.37577142  0.64259454     0.20200
F709        F  0.16357691  0.38690666  0.66080703    -0.12700
F710        F  0.16311875  0.38805148  0.58404982    -0.15100
F711        F  0.06614795  0.36140002  0.66127455    -0.15100
F712        F  0.06630608  0.36019492  0.58401913    -0.12700
C713        C  0.26495970  0.00137403  0.72578201     0.25300
C714        C  0.28929964  0.00462152  0.74847094    -0.22800
C715        C  0.29219268  0.02847646  0.77200198     0.20200
C716        C  0.27103347  0.04890664  0.77275237     0.25300
C717        C  0.24665075  0.04564371  0.75014665    -0.22700
C718        C  0.24372514  0.02174501  0.72666686     0.20200
F719        F  0.22001424  0.01788763  0.70527779    -0.12700
F720        F  0.26143516  0.47807437  0.70367099    -0.15100
F721        F  0.27480329  0.07241087  0.79438735    -0.15100
F722        F  0.31594073  0.03235679  0.79330958    -0.12700
C723        C  0.29268678  0.03095287  0.97629727     0.25300
C724        C  0.28896057  0.00512130  0.99539585    -0.22800
C725        C  0.26294452  0.49883725  0.01308889     0.20200
C726        C  0.24098190  0.01845257  0.01239016     0.25300
C727        C  0.24483921  0.04450648  0.99394418    -0.22700
C728        C  0.27071032  0.05059674  0.97559661     0.20200
F729        F  0.27493435  0.07595279  0.95829641    -0.12700
F730        F  0.31788819  0.03737380  0.95943851    -0.15100
F731        F  0.21574921  0.01193755  0.02905718    -0.15100
F732        F  0.25873197  0.47341646  0.53019714    -0.12700
C733        C  0.33901970  0.41990607  0.89328875     0.25300
C734        C  0.36074879  0.43379804  0.91384108    -0.22800
C735        C  0.37596476  0.45450729  0.89297777     0.20200
C736        C  0.37570288  0.45464349  0.85262461     0.25300
C737        C  0.36049617  0.43388236  0.83205135    -0.22700
C738        C  0.33890016  0.41993851  0.85297329     0.20200
F739        F  0.31586871  0.40918965  0.83480539    -0.12700
F740        F  0.31609682  0.40910157  0.91186566    -0.15100
F741        F  0.38746765  0.47702174  0.83411034    -0.15100
F742        F  0.38838328  0.47653886  0.91129838    -0.12700
C743        C  0.37457396  0.45480147  0.60276505     0.25300
C744        C  0.35957354  0.43403490  0.58193216    -0.22800
C745        C  0.33865557  0.41919049  0.60302992     0.20200
C746        C  0.33918274  0.41863293  0.64340131     0.25300
C747        C  0.36042722  0.43321075  0.66403248    -0.22700
C748        C  0.37491669  0.45445801  0.64315650     0.20200
F749        F  0.38672311  0.47678246  0.66154311    -0.12700
F750        F  0.38632998  0.47726579  0.58444474    -0.15100
F751        F  0.31687442  0.40667179  0.66201095    -0.15100
F752        F  0.31563491  0.40819207  0.58514944    -0.12700
C753        C  0.03140450  0.24135628  0.72576406     0.25300
C754        C  0.50668766  0.24415736  0.74793136    -0.22800
C755        C  0.50286740  0.26843787  0.77044334     0.20200
C756        C  0.02353771  0.28959432  0.77087046     0.25300
C757        C  0.04837326  0.28671683  0.74889306    -0.22700
C758        C  0.05219519  0.26244642  0.72639591     0.20200
F759        F  0.07638716  0.25894825  0.70579356    -0.12700
F760        F  0.03564352  0.21787524  0.70430374    -0.15100
F761        F  0.01888276  0.31336290  0.79161749    -0.15100
F762        F  0.47863864  0.27203368  0.79096798    -0.12700
C763        C  0.02732637  0.28522941  0.97399764     0.25300
C764        C  0.05105964  0.28334308  0.99820824    -0.22800
C765        C  0.05363759  0.25992057  0.52279806     0.20200
C766        C  0.03285459  0.23870974  0.52300298     0.25300
C767        C  0.00924394  0.24062496  0.99860962    -0.22700
C768        C  0.50659305  0.26416159  0.97433016     0.20200
F769        F  0.48328655  0.26729197  0.95196361    -0.12700
F770        F  0.02364308  0.30806067  0.95100514    -0.15100
F771        F  0.03605501  0.21599692  0.54633673    -0.15100
F772        F  0.07660993  0.25727649  0.54588162    -0.12700
C773        C  0.41809372  0.15141424  0.89301439     0.25300
C774        C  0.42765261  0.17508431  0.91407349    -0.22800
C775        C  0.43128937  0.20046542  0.89333087     0.20200
C776        C  0.43087966  0.20068133  0.85295913     0.25300
C777        C  0.42735251  0.17542664  0.83195374    -0.22700
C778        C  0.41802323  0.15157676  0.85281342     0.20200
F779        F  0.40663240  0.12894761  0.83459786    -0.12700
F780        F  0.40649241  0.12869806  0.91093902    -0.15100
F781        F  0.43218367  0.22594653  0.83468579    -0.15100
F782        F  0.43361676  0.22545714  0.91202259    -0.12700
C783        C  0.41780587  0.19782808  0.64312034     0.25300
C784        C  0.43122348  0.17612658  0.66398476    -0.22800
C785        C  0.45157724  0.16060215  0.64305495     0.20200
C786        C  0.45119476  0.16023456  0.60267668     0.25300
C787        C  0.43063051  0.17561183  0.58198530    -0.22700
C788        C  0.41748423  0.19757502  0.60279904     0.20200
F789        F  0.40804560  0.22100642  0.58460043    -0.12700
F790        F  0.40858396  0.22140242  0.66119312    -0.15100
F791        F  0.47323292  0.14790780  0.58417944    -0.15100
F792        F  0.47416335  0.14898027  0.66106216    -0.12700
C793        C  0.42924903  0.67451848  0.45834317     0.31700
C794        C  0.42884543  0.67401029  0.03764108     0.31700
C795        C  0.43282818  0.64539812  0.47754028    -0.04500
C796        C  0.45297302  0.69129375  0.47803479    -0.05300
C797        C  0.40260403  0.68619720  0.47775404    -0.05100
C798        C  0.43167042  0.64468955  0.01793383    -0.04500
C799        C  0.45254308  0.69127030  0.01805607    -0.05200
C800        C  0.40176079  0.68533885  0.01778822    -0.05100
C801        C  0.44270522  0.61880020  0.02889170    -0.30500
N802        N  0.45277030  0.60540253  0.99733606     0.16000
C803        C  0.44782479  0.62185001  0.46637752    -0.30500
H804        H  0.45650745  0.61802564  0.43806239     0.17900
C805        C  0.47420227  0.70868823  0.03012195    -0.29500
N806        N  0.48773885  0.71906991  0.49863583     0.14700
C807        C  0.47528323  0.70817858  0.46680356    -0.29500
C808        C  0.37581914  0.69661274  0.02833196    -0.29800
N809        N  0.36246656  0.70612219  0.99637462     0.15200
H810        H  0.36757202  0.69895873  0.05715187     0.17800
C811        C  0.37858140  0.69981481  0.46530883    -0.29800
H812        H  0.37355778  0.70544644  0.43599982     0.17800
H813        H  0.48172448  0.71281822  0.43762810     0.17800
H814        H  0.44583926  0.61130135  0.05787798     0.17900
H815        H  0.47895385  0.71438116  0.05950049     0.17800
C816        C  0.42936206  0.67464464  0.20833817     0.31700
C817        C  0.42900085  0.67493686  0.28770113     0.31700
C818        C  0.43401146  0.64561498  0.22819381    -0.04500
C819        C  0.45160138  0.69340269  0.22804788    -0.05300
C820        C  0.40147843  0.68427286  0.22793163    -0.05100
C821        C  0.43489909  0.64623687  0.26849876    -0.04500
C822        C  0.45161664  0.69342303  0.26809273    -0.05200
C823        C  0.40158029  0.68448280  0.26805024    -0.05100
C824        C  0.44975501  0.62264623  0.27986972    -0.30500
N825        N  0.45498778  0.60636002  0.24878841     0.16000
C826        C  0.44496073  0.61974571  0.21723650    -0.30500
H827        H  0.44781919  0.61207432  0.18830011     0.17900
C828        C  0.47318044  0.71113132  0.27946170    -0.29500
N829        N  0.48541740  0.72248527  0.24771481     0.14700
C830        C  0.47266277  0.71161994  0.21611128    -0.29500
C831        C  0.37651757  0.69647847  0.28018377    -0.29800
N832        N  0.36114986  0.70348377  0.24876953     0.15200
H833        H  0.37088953  0.70172256  0.30947294     0.17800
C834        C  0.37576351  0.69562860  0.21693983    -0.29800
H835        H  0.36832913  0.69899660  0.18797992     0.17800
H836        H  0.47779650  0.71719776  0.18674472     0.17800
H837        H  0.45782434  0.61849983  0.30839389     0.17900
H838        H  0.47960434  0.71569074  0.30859496     0.17800
C839        C  0.36226006  0.93213169  0.45805261     0.31700
C840        C  0.36137546  0.93236051  0.03753249     0.31700
C841        C  0.39099353  0.93796521  0.47790087    -0.04500
C842        C  0.34270454  0.95345120  0.47739220    -0.05300
C843        C  0.35369921  0.90400971  0.47764474    -0.05100
C844        C  0.39049466  0.93824966  0.01821856    -0.04500
C845        C  0.34209230  0.95347024  0.01730238    -0.05200
C846        C  0.35314891  0.90418180  0.01792467    -0.05100
C847        C  0.41722930  0.94639091  0.02990261    -0.30500
N848        N  0.43350952  0.95154173  0.49848104     0.16000
C849        C  0.41815373  0.94546238  0.46669766    -0.30500
H850        H  0.42573047  0.94852572  0.43765421     0.17900
C851        C  0.32235824  0.97308315  0.02843135    -0.29500
N852        N  0.31140267  0.98501253  0.49632251     0.14700
C853        C  0.32369781  0.97331070  0.46500702    -0.29500
C854        C  0.34414957  0.87771979  0.02935045    -0.29800
N855        N  0.33863503  0.86197655  0.49778652     0.15200
H856        H  0.34105927  0.87029601  0.05841500     0.17800
C857        C  0.34533250  0.87731522  0.46615322    -0.29800
H858        H  0.34277021  0.86988582  0.43702304     0.17800
H859        H  0.31846680  0.97826916  0.43552218     0.17800
H860        H  0.42418728  0.94995838  0.05903528     0.17900
H861        H  0.31608538  0.97805959  0.05756246     0.17800
C862        C  0.36221237  0.93149126  0.20837959     0.31700
C863        C  0.36225844  0.93188571  0.28784034     0.31700
C864        C  0.39094646  0.93836895  0.22780437    -0.04500
C865        C  0.34210960  0.95214574  0.22809585    -0.05300
C866        C  0.35471416  0.90311310  0.22831828    -0.05100
C867        C  0.39107812  0.93838631  0.26810878    -0.04500
C868        C  0.34226719  0.95238763  0.26796193    -0.05200
C869        C  0.35443128  0.90346198  0.26862703    -0.05100
C870        C  0.41809535  0.94641285  0.27931577    -0.30500
N871        N  0.43366948  0.95236888  0.24751030     0.16000
C872        C  0.41766965  0.94676816  0.21611846    -0.30500
H873        H  0.42485866  0.94996566  0.18694486     0.17900
C874        C  0.32282768  0.97197426  0.27977224    -0.29500
N875        N  0.31087202  0.98353058  0.24812961     0.14700
C876        C  0.32242598  0.97159240  0.21637219    -0.29500
C877        C  0.34530330  0.87713059  0.28049989    -0.29800
N878        N  0.33985825  0.86109138  0.24916505     0.15200
H879        H  0.34184605  0.87014877  0.30970817     0.17800
C880        C  0.34646477  0.87625532  0.21729836    -0.29800
H881        H  0.34375671  0.86862381  0.18830101     0.17800
H882        H  0.31698681  0.97679656  0.18703888     0.17800
H883        H  0.42549527  0.94965272  0.30833863     0.17900
H884        H  0.31739500  0.97713581  0.30915007     0.17800
O885        O  0.47865355  0.96428874  0.47550590    -0.76800
C886        C  0.02143703  0.51775007  0.39294021     0.84300
O887        O  0.07677890  0.97648396  0.01918297    -0.77900
O888        O  0.06313841  0.57456919  0.47463732    -0.79400
O889        O  0.46624831  0.56112564  0.02072415    -0.79200
O890        O  0.45861878  0.99028695  0.02120979    -0.77800
Zn891      Zn  0.01668601  0.98399961  0.46594659     1.55700
O892        O  0.99196298  0.58082749  0.47414332    -0.79200
Cd893      Cd  0.48686666  0.52293809  0.02901186     1.59700
Cd894      Cd  0.05650116  0.51477108  0.02769659     1.59600
O895        O  0.49850612  0.52184414  0.08469902    -0.79200
O896        O  0.02127526  0.51812873  0.49649495    -1.89700
Cd897      Cd  0.02519628  0.55311831  0.46540674     1.59900
O898        O  0.04554083  0.51605373  0.08392869    -0.79100
O899        O  0.02434593  0.54136743  0.40971521    -0.77800
C900        C  0.07050946  0.95593988  0.49721346     0.84700
C901        C  0.45825654  0.96918314  0.49865599     0.84400
O902        O  0.01827401  0.99454748  0.41082439    -0.76700
C903        C  0.47104203  0.58129307  0.99737088     0.85200
O904        O  0.04870837  0.95647557  0.47563553    -0.76800
C905        C  0.02214460  0.51901052  0.10155880     0.85300
C906        C  0.08380844  0.56989507  0.49722861     0.85700
O907        O  0.08433153  0.54825884  0.01900946    -0.79300
O908        O  0.05004231  0.95679097  0.26879998    -0.76800
C909        C  0.02175202  0.51771464  0.35155092     0.84300
O910        O  0.45888239  0.99123845  0.22486420    -0.77900
O911        O  0.99428212  0.58151941  0.27090090    -0.79400
O912        O  0.08550512  0.54802764  0.22484722    -0.79200
O913        O  0.07769785  0.97695306  0.22456113    -0.77800
Zn914      Zn  0.01758637  0.98398058  0.27846624     1.55700
O915        O  0.06518980  0.57319437  0.27119363    -0.79200
Cd916      Cd  0.05726227  0.51498864  0.21595972     1.59700
Cd917      Cd  0.48765799  0.52346893  0.21629699     1.59600
O918        O  0.04593880  0.51621815  0.15989829    -0.79200
O919        O  0.02226967  0.51818320  0.24795664    -1.89700
Cd920      Cd  0.02668431  0.55290853  0.27926806     1.59900
O921        O  0.49890237  0.52218230  0.16029489    -0.79100
O922        O  0.02495604  0.54129590  0.33477217    -0.77800
C923        C  0.45859230  0.96983089  0.24699057     0.84700
C924        C  0.07183849  0.95651137  0.24699837     0.84400
O925        O  0.01880349  0.99452321  0.33366245    -0.76700
C926        C  0.08560060  0.56882936  0.24800959     0.85200
O927        O  0.47932628  0.96437191  0.26924170    -0.76800
C928        C  0.02236282  0.51915146  0.14285022     0.85300
C929        C  0.47302854  0.58209506  0.24843523     0.85700
O930        O  0.46770413  0.56190932  0.22542226    -0.79300
C931        C  0.11712500  0.86325317  0.45780381     0.31700
C932        C  0.11742688  0.86426980  0.03717060     0.31700
C933        C  0.10668522  0.89079077  0.47706075    -0.04500
C934        C  0.09930928  0.84068886  0.47821926    -0.05300
C935        C  0.14655625  0.85957607  0.47709887    -0.05100
C936        C  0.10669415  0.89098864  0.01715190    -0.04500
C937        C  0.09956454  0.84077691  0.01823596    -0.05200
C938        C  0.14645750  0.85961053  0.01753995    -0.05100
C939        C  0.09498712  0.91613410  0.02897764    -0.30500
N940        N  0.08786622  0.93121079  0.49735627     0.16000
C941        C  0.09547174  0.91640463  0.46571197    -0.30500
H942        H  0.09245568  0.92386239  0.43667104     0.17900
C943        C  0.08285470  0.81833203  0.02990818    -0.29500
N944        N  0.07196331  0.80552132  0.49828082     0.14700
C945        C  0.08213395  0.81890032  0.46661693    -0.29500
C946        C  0.17083025  0.84592473  0.02899571    -0.29800
N947        N  0.18635549  0.83928167  0.49761442     0.15200
H948        H  0.17555558  0.83870000  0.05778334     0.17800
C949        C  0.17202190  0.84759732  0.46595479    -0.29800
H950        H  0.17918698  0.84360191  0.43701954     0.17800
H951        H  0.07724288  0.81328128  0.43725696     0.17800
H952        H  0.09040834  0.92224838  0.05827119     0.17900
H953        H  0.07828978  0.81213108  0.05918832     0.17800
C954        C  0.11746537  0.86444579  0.20789110     0.31700
C955        C  0.11774542  0.86416592  0.28730724     0.31700
C956        C  0.10872318  0.89200804  0.22765605    -0.04500
C957        C  0.09824836  0.84247451  0.22763252    -0.05300
C958        C  0.14610316  0.85776119  0.22704167    -0.05100
C959        C  0.10894056  0.89214162  0.26781461    -0.04500
C960        C  0.09818982  0.84274019  0.26765835    -0.05200
C961        C  0.14669940  0.85856085  0.26733388    -0.05100
C962        C  0.09763852  0.91773429  0.27892498    -0.30500
N963        N  0.08974461  0.93220704  0.24711942     0.16000
C964        C  0.09675356  0.91694639  0.21563944    -0.30500
H965        H  0.09139158  0.92252806  0.18639263     0.17900
C966        C  0.07985683  0.82198817  0.27989984    -0.29500
N967        N  0.06923216  0.80878562  0.24854279     0.14700
C968        C  0.08068166  0.82068849  0.21658746    -0.29500
C969        C  0.17275532  0.84789302  0.27819464    -0.29800
N970        N  0.18639631  0.83827171  0.24651692     0.15200
H971        H  0.18044066  0.84506185  0.30716330     0.17800
C972        C  0.17007205  0.84350405  0.21540427    -0.29800
H973        H  0.17453447  0.83596759  0.18671673     0.17800
H974        H  0.07625374  0.81398456  0.18753845     0.17800
H975        H  0.09423275  0.92512575  0.30790592     0.17900
H976        H  0.07479396  0.81667326  0.30937992     0.17800
C977        C  0.17435966  0.61877319  0.03810935     0.31700
C978        C  0.17360442  0.62055982  0.45886300     0.31700
C979        C  0.18365774  0.64668673  0.01942605    -0.04500
C980        C  0.19316465  0.59726364  0.01751652    -0.05300
C981        C  0.14546641  0.61256472  0.01896564    -0.05100
C982        C  0.18257125  0.64811012  0.47941497    -0.04500
C983        C  0.19306817  0.59857394  0.47752727    -0.05200
C984        C  0.14459977  0.61452873  0.47865410    -0.05100
C985        C  0.19371177  0.67413485  0.46926287    -0.30500
N986        N  0.20377994  0.68697289  0.50124604     0.16000
C987        C  0.19771465  0.67046131  0.03205057    -0.30500
H988        H  0.20457241  0.67462408  0.06111832     0.17900
C989        C  0.21193740  0.57878773  0.46437864    -0.29500
N990        N  0.22292766  0.56522040  0.49516269     0.14700
C991        C  0.21136184  0.57593566  0.02768400    -0.29500
C992        C  0.11959455  0.60158683  0.46723470    -0.29800
N993        N  0.10715680  0.58939874  0.49822490     0.15200
H994        H  0.11217054  0.59883803  0.43813983     0.17800
C995        C  0.12322719  0.59504633  0.02942967    -0.29800
H996        H  0.12000874  0.58557535  0.05741046     0.17800
H997        H  0.21647612  0.56907312  0.05647853     0.17800
H998        H  0.19632946  0.68246687  0.44055271     0.17900
H999        H  0.21747922  0.57466525  0.43473518     0.17800
C1000       C  0.17486488  0.62055637  0.28821681     0.31700
C1001       C  0.17553663  0.62004813  0.20883029     0.31700
C1002       C  0.18217030  0.64885473  0.26814599    -0.04500
C1003       C  0.19564466  0.60016432  0.26887962    -0.05300
C1004       C  0.14634471  0.61292706  0.26835929    -0.05100
C1005       C  0.18267917  0.64831127  0.22795791    -0.04500
C1006       C  0.19577513  0.59962205  0.22885205    -0.05200
C1007       C  0.14732092  0.61162233  0.22809838    -0.05100
C1008       C  0.19548749  0.67287744  0.21557282    -0.30500
N1009       N  0.20234954  0.68845337  0.24679725     0.16000
C1010       C  0.19365869  0.67450913  0.27875411    -0.30500
H1011       H  0.19721116  0.68210483  0.30757341     0.17900
C1012       C  0.21390955  0.57853175  0.21788399    -0.29500
N1013       N  0.22545366  0.56712225  0.24988228     0.14700
C1014       C  0.21440021  0.58003782  0.28123567    -0.29500
C1015       C  0.12533625  0.59426096  0.21686221    -0.29800
N1016       N  0.10929872  0.58782728  0.24790321     0.15200
H1017       H  0.12203327  0.58572125  0.18842279     0.17800
C1018       C  0.12142078  0.59955568  0.27933581    -0.29800
H1019       H  0.11358964  0.59655112  0.30826506     0.17800
H1020       H  0.21927909  0.57479394  0.31070991     0.17800
H1021       H  0.20209714  0.67760737  0.18647009     0.17900
H1022       H  0.21850982  0.57183742  0.18883049     0.17800
O1023       O  0.25015389  0.76756266  0.41205775    -0.76800
C1024       C  0.22300497  0.71049082  0.50104787     0.84300
O1025       O  0.23040223  0.82612760  0.02202308    -0.77900
O1026       O  0.27961574  0.74833560  0.08547476    -0.79400
O1027       O  0.33780341  0.74577765  0.47521558    -0.79200
O1028       O  0.29704333  0.77508104  0.41023551    -0.77800
Zn1029     Zn  0.23912696  0.76796836  0.46701078     1.55700
O1030       O  0.31687374  0.71734277  0.01781248    -0.79200
Cd1031     Cd  0.30841348  0.77759696  0.46613997     1.59700
Cd1032     Cd  0.26889300  0.80622867  0.03020095     1.59600
O1033       O  0.32734482  0.81700280  0.47421710    -0.79200
O1034       O  0.27331430  0.77216049  0.49754556    -1.89700
Cd1035     Cd  0.27861130  0.73740350  0.02906471     1.59900
O1036       O  0.30104870  0.83512427  0.02124337    -0.79100
O1037       O  0.24481970  0.70970311  0.02255772    -0.77800
C1038       C  0.21074284  0.82136691  0.49790292     0.84700
C1039       C  0.27336920  0.77084129  0.39398514     0.84400
O1040       O  0.21846137  0.73115672  0.47843802    -0.76700
C1041       C  0.33781504  0.72371699  0.99622246     0.85200
O1042       O  0.21188278  0.80061208  0.47471651    -0.76800
C1043       C  0.32183760  0.83672286  0.99791476     0.85300
C1044       C  0.27570079  0.77150118  0.10288266     0.85700
O1045       O  0.27086941  0.79472341  0.08606878    -0.79300
O1046       O  0.21884693  0.73191902  0.22397442    -0.76800
C1047       C  0.21115445  0.82084136  0.24684783     0.84300
O1048       O  0.29974859  0.77434952  0.16081502    -0.77900
O1049       O  0.30146910  0.83477206  0.27164900    -0.79400
O1050       O  0.27585216  0.74727265  0.33565580    -0.79200
O1051       O  0.24329073  0.71009007  0.26972774    -0.77800
Zn1052     Zn  0.24037998  0.76841035  0.21534144     1.55700
O1053       O  0.27015583  0.79414696  0.33593581    -0.79200
Cd1054     Cd  0.27733823  0.73674674  0.27901752     1.59700
Cd1055     Cd  0.30967147  0.77652469  0.21752881     1.59600
O1056       O  0.31560437  0.71577531  0.26974255    -0.79200
O1057       O  0.27379014  0.77174073  0.24750107    -1.89700
Cd1058     Cd  0.26908825  0.80583601  0.28006234     1.59900
O1059       O  0.33782211  0.74389071  0.22788118    -0.79100
O1060       O  0.23048638  0.82552448  0.27148365    -0.77800
C1061       C  0.27610291  0.77148813  0.14390102     0.84700
C1062       C  0.22226283  0.71128309  0.24689274     0.84400
O1063       O  0.21293775  0.80053213  0.22307845    -0.76700
C1064       C  0.27289410  0.77064563  0.35293383     0.85200
O1065       O  0.25256393  0.76914647  0.16132677    -0.76800
C1066       C  0.33699882  0.72175128  0.24871859     0.85300
C1067       C  0.32297390  0.83585000  0.24943962     0.85700
O1068       O  0.32906168  0.81566682  0.22670567    -0.79300
C1069       C  0.16161077  0.59774258  0.39366878     0.25300
C1070       C  0.17538242  0.61934056  0.41452889    -0.22800
C1071       C  0.19681510  0.63386282  0.39394555     0.20200
C1072       C  0.19722060  0.63379068  0.35360280     0.25300
C1073       C  0.17633583  0.61900962  0.33259419    -0.22700
C1074       C  0.16227225  0.59746460  0.35335283     0.20200
F1075       F  0.15288984  0.57391235  0.33528150    -0.12700
F1076       F  0.15107858  0.57466447  0.41190613    -0.15100
F1077       F  0.22052624  0.64439073  0.33575636    -0.15100
F1078       F  0.21992634  0.64420781  0.41230486    -0.12700
C1079       C  0.20080949  0.61824475  0.10282104     0.25300
C1080       C  0.17499262  0.61980664  0.08240613    -0.22800
C1081       C  0.15063594  0.62729240  0.10377558     0.20200
C1082       C  0.15109376  0.62802742  0.14392753     0.25300
C1083       C  0.17580698  0.62107664  0.16455842    -0.22700
C1084       C  0.20122821  0.61903739  0.14319902     0.23000
F1085       F  0.22674051  0.61955437  0.16110341    -0.12700
F1086       F  0.22594215  0.61762394  0.08379378    -0.15100
F1087       F  0.12762922  0.63760404  0.16230751    -0.15100
F1088       F  0.12668061  0.63619642  0.08613344    -0.12700
C1089       C  0.13093490  0.84115237  0.35221474     0.25300
C1090       C  0.11603170  0.86208876  0.33160583    -0.22800
C1091       C  0.09408116  0.87538471  0.35239711     0.20200
C1092       C  0.09365223  0.87481257  0.39269751     0.25300
C1093       C  0.11533325  0.86121799  0.41349874    -0.22700
C1094       C  0.13058728  0.84072698  0.39259350     0.20200
F1095       F  0.14187582  0.81805393  0.41066935    -0.12700
F1096       F  0.14253452  0.81883095  0.33371455    -0.15100
F1097       F  0.06983923  0.88380903  0.41073159    -0.15100
F1098       F  0.07087187  0.88542790  0.33410769    -0.12700
C1099       C  0.14065954  0.87604786  0.10230622     0.25300
C1100       C  0.11693597  0.86624367  0.08144824    -0.22800
C1101       C  0.09152430  0.86246863  0.10242705     0.20200
C1102       C  0.09147732  0.86269942  0.14279610     0.25300
C1103       C  0.11693058  0.86613631  0.16360582    -0.22700
C1104       C  0.14074318  0.87577119  0.14259421     0.20200
F1105       F  0.16357694  0.88690652  0.16080644    -0.12700
F1106       F  0.16311781  0.88805213  0.08404916    -0.15100
F1107       F  0.06614819  0.86139901  0.16127519    -0.15100
F1108       F  0.06630569  0.86019411  0.08401985    -0.12700
C1109       C  0.26495920  0.50137402  0.22578157     0.25300
C1110       C  0.28929915  0.50462152  0.24847046    -0.22800
C1111       C  0.29219213  0.52847642  0.27200159     0.20200
C1112       C  0.27103278  0.54890648  0.27275227     0.25300
C1113       C  0.24665001  0.54564352  0.25014665    -0.22700
C1114       C  0.24372454  0.52174492  0.22666661     0.20200
F1115       F  0.22001368  0.51788754  0.20527747    -0.12700
F1116       F  0.26143488  0.97807473  0.20366979    -0.15100
F1117       F  0.27480251  0.57241064  0.29438744    -0.15100
F1118       F  0.31594022  0.53235679  0.29330910    -0.12700
C1119       C  0.29268621  0.53095240  0.47629770     0.25300
C1120       C  0.28895924  0.50512022  0.49539447    -0.22800
C1121       C  0.26294285  0.99883599  0.51308570     0.20200
C1122       C  0.24098019  0.51845132  0.51238709     0.25300
C1123       C  0.24483836  0.54450596  0.49394333    -0.22700
C1124       C  0.27070999  0.55059656  0.47559733     0.20200
F1125       F  0.27493467  0.57595316  0.45829889    -0.12700
F1126       F  0.31788810  0.53737359  0.45944045    -0.15100
F1127       F  0.21574689  0.51193591  0.52905214    -0.15100
F1128       F  0.25873462  0.97341864  0.03020259    -0.12700
C1129       C  0.33901967  0.91990458  0.39328891     0.25300
C1130       C  0.36074839  0.93379717  0.41384124    -0.22800
C1131       C  0.37596371  0.95450689  0.39297789     0.20200
C1132       C  0.37570154  0.95464332  0.35262471     0.25300
C1133       C  0.36049533  0.93388186  0.33205139    -0.22700
C1134       C  0.33889992  0.91993719  0.35297344     0.20200
F1135       F  0.31586866  0.90918778  0.33480572    -0.12700
F1136       F  0.31609711  0.90909942  0.41186585    -0.15100
F1137       F  0.38746562  0.97702195  0.33411047    -0.15100
F1138       F  0.38838194  0.97653860  0.41129856    -0.12700
C1139       C  0.37457453  0.95480111  0.10276497     0.25300
C1140       C  0.35957411  0.93403459  0.08193201    -0.22800
C1141       C  0.33865601  0.91919023  0.10302965     0.20200
C1142       C  0.33918292  0.91863282  0.14340104     0.25300
C1143       C  0.36042726  0.93321067  0.16403238    -0.22700
C1144       C  0.37491703  0.95445775  0.14315642     0.20200
F1145       F  0.38672353  0.97678218  0.16154298    -0.12700
F1146       F  0.38633078  0.97726532  0.08444465    -0.15100
F1147       F  0.31687449  0.90667172  0.16201051    -0.15100
F1148       F  0.31563542  0.90819178  0.08514905    -0.12700
C1149       C  0.03140421  0.74135575  0.22576215     0.25300
C1150       C  0.50668687  0.74415794  0.24792801    -0.22800
C1151       C  0.50286657  0.76843913  0.27043857     0.20200
C1152       C  0.02353747  0.78959494  0.27086629     0.25300
C1153       C  0.04837378  0.78671605  0.24889087    -0.22700
C1154       C  0.05219557  0.76244522  0.22639453     0.20200
F1155       F  0.07638806  0.75894600  0.20579361    -0.12700
F1156       F  0.03564313  0.71787411  0.20430299    -0.15100
F1157       F  0.01888260  0.81336416  0.29161200    -0.15100
F1158       F  0.47863719  0.77203619  0.29096143    -0.12700
C1159       C  0.02732202  0.78523536  0.47400892     0.25300
C1160       C  0.05105977  0.78334410  0.49821053    -0.22800
C1161       C  0.05363260  0.75992430  0.02280492     0.20200
C1162       C  0.03284971  0.73871335  0.02301001     0.25300
C1163       C  0.00924400  0.74062666  0.49861177    -0.22700
C1164       C  0.50658799  0.76416815  0.47434219     0.20200
F1165       F  0.48327701  0.76730254  0.45198522    -0.12700
F1166       F  0.02363530  0.80807090  0.45102534    -0.15100
F1167       F  0.03604575  0.71600550  0.04635388    -0.15100
F1168       F  0.07660012  0.75728458  0.04589818    -0.12700
C1169       C  0.41809442  0.65141556  0.39301476     0.25300
C1170       C  0.42765342  0.67508572  0.41407360    -0.22800
C1171       C  0.43129005  0.70046671  0.39333068     0.20200
C1172       C  0.43088043  0.70068233  0.35295890     0.25300
C1173       C  0.42735335  0.67542746  0.33195381    -0.22700
C1174       C  0.41802400  0.65157778  0.35281382     0.20200
F1175       F  0.40663320  0.62894850  0.33459854    -0.12700
F1176       F  0.40649288  0.62869961  0.41093963    -0.15100
F1177       F  0.43218418  0.72594742  0.33468527    -0.15100
F1178       F  0.43361697  0.72545858  0.41202211    -0.12700
C1179       C  0.41780462  0.69782684  0.14312039     0.25300
C1180       C  0.43122243  0.67612545  0.16398476    -0.22800
C1181       C  0.45157624  0.66060110  0.14305492     0.20200
C1182       C  0.45119393  0.66023372  0.10267665     0.25300
C1183       C  0.43062973  0.67561102  0.08198523    -0.22700
C1184       C  0.41748321  0.69757400  0.10279909     0.20200
F1185       F  0.40804470  0.72100554  0.08460072    -0.12700
F1186       F  0.40858218  0.72140093  0.16119328    -0.15100
F1187       F  0.47323221  0.64790710  0.08417949    -0.15100
F1188       F  0.47416230  0.64897910  0.16106211    -0.12700
C1189       C  0.42924822  0.67451704  0.95834306     0.31700
C1190       C  0.42884617  0.67401114  0.53764125     0.31700
C1191       C  0.43282670  0.64539672  0.97754037    -0.04500
C1192       C  0.45297269  0.69129172  0.97803440    -0.05300
C1193       C  0.40260352  0.68619656  0.97775383    -0.05100
C1194       C  0.43167184  0.64469068  0.51793364    -0.04500
C1195       C  0.45254352  0.69127167  0.51805655    -0.05200
C1196       C  0.40176129  0.68533929  0.51778845    -0.05100
C1197       C  0.44270590  0.61880100  0.52889126    -0.30500
N1198       N  0.45277064  0.60540325  0.49733549     0.16000
C1199       C  0.44782401  0.62184895  0.96637794    -0.30500
H1200       H  0.45650692  0.61802473  0.93806296     0.17900
C1201       C  0.47420282  0.70868917  0.53012301    -0.29500
N1202       N  0.48773870  0.71906818  0.99863444     0.14700
C1203       C  0.47528330  0.70817573  0.96680264    -0.29500
C1204       C  0.37581948  0.69661280  0.52833235    -0.29800
N1205       N  0.36246673  0.70612209  0.49637498     0.15200
H1206       H  0.36757253  0.69895877  0.55715215     0.17800
C1207       C  0.37858112  0.69981454  0.96530849    -0.29800
H1208       H  0.37355753  0.70544602  0.93599948     0.17800
H1209       H  0.48172488  0.71281394  0.93762690     0.17800
H1210       H  0.44583974  0.61130191  0.55787759     0.17900
H1211       H  0.47895501  0.71438122  0.55950182     0.17800
C1212       C  0.42936265  0.67464530  0.70833824     0.31700
C1213       C  0.42900046  0.67493645  0.78770116     0.31700
C1214       C  0.43401078  0.64561515  0.72819328    -0.04500
C1215       C  0.45160237  0.69340233  0.72804891    -0.05300
C1216       C  0.40147911  0.68427426  0.72793133    -0.05100
C1217       C  0.43489789  0.64623651  0.76849833    -0.04500
C1218       C  0.45161717  0.69342209  0.76809375    -0.05200
C1219       C  0.40158049  0.68448361  0.76804992    -0.05100
C1220       C  0.44975426  0.62264607  0.77986905    -0.30500
N1221       N  0.45498769  0.60636033  0.74878752     0.16000
C1222       C  0.44496084  0.61974625  0.71723571    -0.30500
H1223       H  0.44782000  0.61207528  0.68829909     0.17900
C1224       C  0.47318105  0.71112996  0.77946375    -0.29500
N1225       N  0.48541850  0.72248432  0.74771742     0.14700
C1226       C  0.47266407  0.71161957  0.71611333    -0.29500
C1227       C  0.37651774  0.69647926  0.78018328    -0.29800
N1228       N  0.36115048  0.70348526  0.74876896     0.15200
H1229       H  0.37088923  0.70172264  0.80947262     0.17800
C1230       C  0.37576445  0.69563050  0.71693934    -0.29800
H1231       H  0.36833029  0.69899882  0.68797932     0.17800
H1232       H  0.47779794  0.71719804  0.68674697     0.17800
H1233       H  0.45782349  0.61849960  0.80839310     0.17900
H1234       H  0.47960444  0.71568900  0.80859720     0.17800
C1235       C  0.36226048  0.93213224  0.95805243     0.31700
C1236       C  0.36137487  0.93236051  0.53753270     0.31700
C1237       C  0.39099410  0.93796511  0.97790065    -0.04500
C1238       C  0.34270539  0.95345197  0.97739237    -0.05300
C1239       C  0.35369916  0.90401027  0.97764421    -0.05100
C1240       C  0.39049401  0.93824999  0.51821878    -0.04500
C1241       C  0.34209135  0.95346976  0.51730223    -0.05200
C1242       C  0.35314879  0.90418152  0.51792521    -0.05100
C1243       C  0.41722858  0.94639149  0.52990286    -0.30500
N1244       N  0.43351025  0.95154114  0.99848080     0.16000
C1245       C  0.41815436  0.94546202  0.96669742    -0.30500
H1246       H  0.42573110  0.94852543  0.93765400     0.17900
C1247       C  0.32235697  0.97308252  0.52843082    -0.29500
N1248       N  0.31140396  0.98501353  0.99632331     0.14700
C1249       C  0.32369886  0.97331179  0.96500755    -0.29500
C1250       C  0.34414940  0.87771956  0.52935128    -0.29800
N1251       N  0.33863492  0.86197703  0.99778558     0.15200
H1252       H  0.34105879  0.87029604  0.55841583     0.17800
C1253       C  0.34533216  0.87731594  0.96615239    -0.29800
H1254       H  0.34276961  0.86988679  0.93702209     0.17800
H1255       H  0.31846774  0.97827039  0.93552290     0.17800
H1256       H  0.42418656  0.94995895  0.55903548     0.17900
H1257       H  0.31608401  0.97805917  0.55756175     0.17800
C1258       C  0.36221271  0.93149131  0.70837973     0.31700
C1259       C  0.36225923  0.93188595  0.78784043     0.31700
C1260       C  0.39094695  0.93836889  0.72780414    -0.04500
C1261       C  0.34211020  0.95214592  0.72809609    -0.05300
C1262       C  0.35471444  0.90311325  0.72831864    -0.05100
C1263       C  0.39107886  0.93838627  0.76810856    -0.04500
C1264       C  0.34226803  0.95238794  0.76796215    -0.05200
C1265       C  0.35443173  0.90346225  0.76862739    -0.05100
C1266       C  0.41809623  0.94641258  0.77931520    -0.30500
N1267       N  0.43367015  0.95236868  0.74750958     0.16000
C1268       C  0.41767006  0.94676810  0.71611796    -0.30500
H1269       H  0.42485885  0.94996580  0.68694412     0.17900
C1270       C  0.32282855  0.97197453  0.77977252    -0.29500
N1271       N  0.31087269  0.98353071  0.74812999     0.14700
C1272       C  0.32242649  0.97159247  0.71637252    -0.29500
C1273       C  0.34530333  0.87713105  0.78050048    -0.29800
N1274       N  0.33985804  0.86109182  0.74916573     0.15200
H1275       H  0.34184592  0.87014945  0.80970882     0.17800
C1276       C  0.34646472  0.87625555  0.71729893    -0.29800
H1277       H  0.34375656  0.86862397  0.68830165     0.17800
H1278       H  0.31698712  0.97679650  0.68703924     0.17800
H1279       H  0.42549641  0.94965229  0.80833800     0.17900
H1280       H  0.31739595  0.97713614  0.80915052     0.17800
O1281       O  0.47865426  0.96428836  0.97550573    -0.76800
C1282       C  0.02143709  0.51775020  0.89294010     0.84300
O1283       O  0.07677851  0.97648371  0.51918253    -0.77900
O1284       O  0.06313896  0.57456900  0.97463698    -0.79400
O1285       O  0.46624821  0.56112624  0.52072377    -0.79200
O1286       O  0.45861829  0.99028743  0.52121003    -0.77800
Zn1287     Zn  0.01668654  0.98399961  0.96594647     1.55700
O1288       O  0.99196321  0.58082739  0.97414408    -0.79200
Cd1289     Cd  0.48686636  0.52293856  0.52901181     1.59700
Cd1290     Cd  0.05650082  0.51477097  0.52769626     1.59600
O1291       O  0.49850610  0.52184489  0.58469889    -0.79200
O1292       O  0.02127570  0.51812863  0.99649501    -1.89700
Cd1293     Cd  0.02519659  0.55311830  0.96540689     1.59900
O1294       O  0.04554069  0.51605379  0.58392836    -0.79100
O1295       O  0.02434577  0.54136754  0.90971524    -0.77800
C1296       C  0.07051005  0.95594019  0.99721372     0.84700
C1297       C  0.45825719  0.96918265  0.99865576     0.84400
O1298       O  0.01827444  0.99454759  0.91082418    -0.76700
C1299       C  0.47104196  0.58129348  0.49737018     0.85200
O1300       O  0.04870907  0.95647583  0.97563559    -0.76800
C1301       C  0.02214456  0.51901100  0.60155856     0.85300
C1302       C  0.08380894  0.56989499  0.99722844     0.85700
O1303       O  0.08433119  0.54825872  0.51900925    -0.79300
O1304       O  0.05004299  0.95679182  0.76879988    -0.76800
C1305       C  0.02175196  0.51771491  0.85155076     0.84300
O1306       O  0.45888266  0.99123860  0.72486380    -0.77900
O1307       O  0.99428230  0.58151997  0.77090016    -0.79400
O1308       O  0.08550541  0.54802789  0.72484732    -0.79200
O1309       O  0.07769811  0.97695391  0.72456057    -0.77800
Zn1310     Zn  0.01758668  0.98398104  0.77846580     1.55700
O1311       O  0.06519033  0.57319453  0.77119402    -0.79200
Cd1312     Cd  0.05726238  0.51498924  0.71595939     1.59700
Cd1313     Cd  0.48765815  0.52346931  0.71629670     1.59600
O1314       O  0.04593895  0.51621888  0.65989794    -0.79200
O1315       O  0.02226986  0.51818371  0.74795643    -1.89700
Cd1316     Cd  0.02668450  0.55290902  0.77926793     1.59900
O1317       O  0.49890252  0.52218275  0.66029468    -0.79100
O1318       O  0.02495593  0.54129622  0.83477210    -0.77800
C1319       C  0.45859287  0.96983083  0.74698978     0.84700
C1320       C  0.07183910  0.95651234  0.74699813     0.84400
O1321       O  0.01880346  0.99452356  0.83366213    -0.76700
C1322       C  0.08560114  0.56882940  0.74801000     0.85200
O1323       O  0.47932700  0.96437182  0.76924066    -0.76800
C1324       C  0.02236291  0.51915204  0.64284996     0.85300
C1325       C  0.47302864  0.58209551  0.74843443     0.85700
O1326       O  0.46770424  0.56190964  0.72542167    -0.79300
C1327       C  0.11712497  0.86325340  0.95780380     0.31700
C1328       C  0.11742747  0.86427002  0.53717064     0.31700
C1329       C  0.10668566  0.89079112  0.97706090    -0.04500
C1330       C  0.09930873  0.84068927  0.97821874    -0.05300
C1331       C  0.14655595  0.85957556  0.97709915    -0.05100
C1332       C  0.10669396  0.89098849  0.51715175    -0.04500
C1333       C  0.09956569  0.84077656  0.51823653    -0.05200
C1334       C  0.14645808  0.85961130  0.51753977    -0.05100
C1335       C  0.09498677  0.91613391  0.52897739    -0.30500
N1336       N  0.08786692  0.93121119  0.99735657     0.16000
C1337       C  0.09547250  0.91640514  0.96571218    -0.30500
H1338       H  0.09245655  0.92386296  0.93667139     0.17900
C1339       C  0.08285616  0.81833166  0.52990943    -0.29500
N1340       N  0.07196258  0.80552131  0.99827926     0.14700
C1341       C  0.08213421  0.81890029  0.96661576    -0.29500
C1342       C  0.17083048  0.84592480  0.52899536    -0.29800
N1343       N  0.18635557  0.83928209  0.99761483     0.15200
H1344       H  0.17555568  0.83869991  0.55778288     0.17800
C1345       C  0.17202195  0.84759760  0.96595511    -0.29800
H1346       H  0.17918726  0.84360255  0.93701991     0.17800
H1347       H  0.07724500  0.81328068  0.93725562     0.17800
H1348       H  0.09040828  0.92224837  0.55827093     0.17900
H1349       H  0.07829166  0.81213053  0.55918957     0.17800
C1350       C  0.11746489  0.86444644  0.70789124     0.31700
C1351       C  0.11774538  0.86416696  0.78730737     0.31700
C1352       C  0.10872384  0.89200912  0.72765604    -0.04500
C1353       C  0.09824707  0.84247598  0.72763308    -0.05300
C1354       C  0.14610251  0.85776086  0.72704169    -0.05100
C1355       C  0.10894137  0.89214287  0.76781463    -0.04500
C1356       C  0.09818890  0.84274182  0.76765891    -0.05200
C1357       C  0.14669900  0.85856081  0.76733379    -0.05100
C1358       C  0.09763946  0.91773559  0.77892490    -0.30500
N1359       N  0.08974549  0.93220823  0.74711930     0.16000
C1360       C  0.09675425  0.91694745  0.71563939    -0.30500
H1361       H  0.09139187  0.92252889  0.68639258     0.17900
C1362       C  0.07985596  0.82198995  0.77990095    -0.29500
N1363       N  0.06923076  0.80878733  0.74854429     0.14700
C1364       C  0.08067995  0.82069011  0.71658862    -0.29500
C1365       C  0.17275518  0.84789358  0.77819440    -0.29800
N1366       N  0.18639610  0.83827219  0.74651668     0.15200
H1367       H  0.18044084  0.84506294  0.80716305     0.17800
C1368       C  0.17007158  0.84350411  0.71540413    -0.29800
H1369       H  0.17453405  0.83596773  0.68671656     0.17800
H1370       H  0.07625188  0.81398595  0.68753970     0.17800
H1371       H  0.09423355  0.92512705  0.80790587     0.17900
H1372       H  0.07479387  0.81667485  0.80938128     0.17800
C1373       C  0.17435937  0.61877302  0.53810933     0.31700
C1374       C  0.17360505  0.62055999  0.95886306     0.31700
C1375       C  0.18365742  0.64668655  0.51942591    -0.04500
C1376       C  0.19316426  0.59726344  0.51751634    -0.05300
C1377       C  0.14546602  0.61256460  0.51896581    -0.05100
C1378       C  0.18257172  0.64811031  0.97941512    -0.04500
C1379       C  0.19306876  0.59857415  0.97752748    -0.05200
C1380       C  0.14460032  0.61452876  0.97865392    -0.05100
C1381       C  0.19371209  0.67413513  0.96926318    -0.30500
N1382       N  0.20378005  0.68697323  0.00124641     0.16000
C1383       C  0.19771452  0.67046105  0.53205026    -0.30500
H1384       H  0.20457243  0.67462381  0.56111799     0.17900
C1385       C  0.21193800  0.57878793  0.96437903    -0.29500
N1386       N  0.22292812  0.56522058  0.99516316     0.14700
C1387       C  0.21136158  0.57593549  0.52768368    -0.29500
C1388       C  0.11959526  0.60158658  0.96723440    -0.29800
N1389       N  0.10715738  0.58939861  0.99822459     0.15200
H1390       H  0.11217145  0.59883754  0.93813941     0.17800
C1391       C  0.12322680  0.59504624  0.52942987    -0.29800
H1392       H  0.12000845  0.58557508  0.55741064     0.17800
H1393       H  0.21647603  0.56907299  0.55647811     0.17800
H1394       H  0.19632982  0.68246723  0.94055294     0.17900
H1395       H  0.21747996  0.57466544  0.93473552     0.17800
C1396       C  0.17486579  0.62055634  0.78821702     0.31700
C1397       C  0.17553723  0.62004816  0.70883046     0.31700
C1398       C  0.18217075  0.64885481  0.76814620    -0.04500
C1399       C  0.19564574  0.60016461  0.76887966    -0.05300
C1400       C  0.14634567  0.61292662  0.76835972    -0.05100
C1401       C  0.18267948  0.64831139  0.72795808    -0.04500
C1402       C  0.19577609  0.59962236  0.72885207    -0.05200
C1403       C  0.14732172  0.61162196  0.72809882    -0.05100
C1404       C  0.19548777  0.67287759  0.71557298    -0.30500
N1405       N  0.20234983  0.68845351  0.74679744     0.16000
C1406       C  0.19365911  0.67450922  0.77875429    -0.30500
H1407       H  0.19721167  0.68210491  0.80757365     0.17900
C1408       C  0.21391047  0.57853204  0.71788389    -0.29500
N1409       N  0.22545458  0.56712252  0.74988219     0.14700
C1410       C  0.21440124  0.58003809  0.78123558    -0.29500
C1411       C  0.12533696  0.59426071  0.71686275    -0.29800
N1412       N  0.10929951  0.58782701  0.74790381     0.15200
H1413       H  0.12203376  0.58572113  0.68842321     0.17800
C1414       C  0.12142179  0.59955522  0.77933637    -0.29800
H1415       H  0.11359076  0.59655055  0.80826580     0.17800
H1416       H  0.21928013  0.57479409  0.81070993     0.17800
H1417       H  0.20209737  0.67760754  0.68647034     0.17900
H1418       H  0.21851060  0.57183765  0.68883047     0.17800
O1419       O  0.25015358  0.76756276  0.91205789    -0.76800
C1420       C  0.22300500  0.71049123  0.00104831     0.84300
O1421       O  0.23040207  0.82612709  0.52202274    -0.77900
O1422       O  0.27961553  0.74833520  0.58547491    -0.79400
O1423       O  0.33780338  0.74577785  0.97521511    -0.79200
O1424       O  0.29704303  0.77508113  0.91023538    -0.77800
Zn1425     Zn  0.23912691  0.76796876  0.96701104     1.55700
O1426       O  0.31687375  0.71734237  0.51781268    -0.79200
Cd1427     Cd  0.30841345  0.77759725  0.96613968     1.59700
Cd1428     Cd  0.26889280  0.80622822  0.53020092     1.59600
O1429       O  0.32734477  0.81700320  0.97421631    -0.79200
O1430       O  0.27331436  0.77216092  0.99754553    -1.89700
Cd1431     Cd  0.27861123  0.73740306  0.52906478     1.59900
O1432       O  0.30104860  0.83512386  0.52124399    -0.79100
O1433       O  0.24481955  0.70970276  0.52255755    -0.77800
C1434       C  0.21074300  0.82136744  0.99790323     0.84700
C1435       C  0.27336885  0.77084133  0.89398516     0.84400
O1436       O  0.21846124  0.73115722  0.97843866    -0.76700
C1437       C  0.33781511  0.72371674  0.49622284     0.85200
O1438       O  0.21188295  0.80061263  0.97471680    -0.76800
C1439       C  0.32183764  0.83672242  0.49791561     0.85300
C1440       C  0.27570037  0.77150080  0.60288269     0.85700
O1441       O  0.27086889  0.79472295  0.58606868    -0.79300
O1442       O  0.21884671  0.73191947  0.72397512    -0.76800
C1443       C  0.21115432  0.82084194  0.74684763     0.84300
O1444       O  0.29974817  0.77434999  0.66081495    -0.77900
O1445       O  0.30146906  0.83477239  0.77165010    -0.79400
O1446       O  0.27585221  0.74727284  0.83565569    -0.79200
O1447       O  0.24329126  0.71009012  0.76972735    -0.77800
Zn1448     Zn  0.24037976  0.76841070  0.71534166     1.55700
O1449       O  0.27015509  0.79414706  0.83593597    -0.79200
Cd1450     Cd  0.27733846  0.73674715  0.77901732     1.59700
Cd1451     Cd  0.30967109  0.77652548  0.71752868     1.59600
O1452       O  0.31560488  0.71577624  0.76974216    -0.79200
O1453       O  0.27378995  0.77174124  0.74750117    -1.89700
Cd1454     Cd  0.26908796  0.80583645  0.78006263     1.59900
O1455       O  0.33782220  0.74389193  0.72788079    -0.79100
O1456       O  0.23048621  0.82552511  0.77148351    -0.77800
C1457       C  0.27610253  0.77148801  0.64390106     0.84700
C1458       C  0.22226303  0.71128329  0.74689290     0.84400
O1459       O  0.21293763  0.80053262  0.72307838    -0.76700
C1460       C  0.27289368  0.77064572  0.85293385     0.85200
O1461       O  0.25256360  0.76914621  0.66132690    -0.76800
C1462       C  0.33699922  0.72175248  0.74871814     0.85300
C1463       C  0.32297361  0.83585052  0.74944027     0.85700
O1464       O  0.32906102  0.81566762  0.72670569    -0.79300
C1465       C  0.16161204  0.59774240  0.89366895     0.25300
C1466       C  0.17538328  0.61934066  0.91452900    -0.22800
C1467       C  0.19681584  0.63386315  0.89394573     0.20200
C1468       C  0.19722145  0.63379092  0.85360299     0.25300
C1469       C  0.17633689  0.61900957  0.83259438    -0.22700
C1470       C  0.16227363  0.59746433  0.85335302     0.20200
F1471       F  0.15289160  0.57391194  0.83528168    -0.12700
F1472       F  0.15108014  0.57466420  0.91190641    -0.15100
F1473       F  0.22052703  0.64439112  0.83575659    -0.15100
F1474       F  0.21992693  0.64420840  0.91230512    -0.12700
C1475       C  0.20080954  0.61824503  0.60282083     0.25300
C1476       C  0.17499253  0.61980653  0.58240617    -0.22800
C1477       C  0.15063586  0.62729192  0.60377592     0.20200
C1478       C  0.15109393  0.62802704  0.64392787     0.25300
C1479       C  0.17580736  0.62107665  0.66455854    -0.22700
C1480       C  0.20122848  0.61903771  0.64319885     0.23000
F1481       F  0.22674088  0.61955498  0.66110299    -0.12700
F1482       F  0.22594207  0.61762450  0.58379326    -0.15100
F1483       F  0.12762938  0.63760343  0.66230805    -0.15100
F1484       F  0.12668027  0.63619558  0.58613409    -0.12700
C1485       C  0.13093509  0.84115339  0.85221465     0.25300
C1486       C  0.11603188  0.86208988  0.83160592    -0.22800
C1487       C  0.09408141  0.87538584  0.85239730     0.20200
C1488       C  0.09365239  0.87481337  0.89269767     0.25300
C1489       C  0.11533338  0.86121862  0.91349876    -0.22700
C1490       C  0.13058750  0.84072780  0.89259335     0.20200
F1491       F  0.14187612  0.81805470  0.91066898    -0.12700
F1492       F  0.14253462  0.81883199  0.83371432    -0.15100
F1493       F  0.06983943  0.88380986  0.91073184    -0.15100
F1494       F  0.07087230  0.88542949  0.83410792    -0.12700
C1495       C  0.14066002  0.87604775  0.60230658     0.25300
C1496       C  0.11693641  0.86624407  0.58144829    -0.22800
C1497       C  0.09152450  0.86246948  0.60242677     0.20200
C1498       C  0.09147718  0.86270027  0.64279584     0.25300
C1499       C  0.11693032  0.86613685  0.66360591    -0.22700
C1500       C  0.14074321  0.87577136  0.64259457     0.20200
F1501       F  0.16357691  0.88690659  0.66080706    -0.12700
F1502       F  0.16311878  0.88805136  0.58404987    -0.15100
F1503       F  0.06614790  0.86140025  0.66127458    -0.15100
F1504       F  0.06630604  0.86019513  0.58401913    -0.12700
C1505       C  0.26495948  0.50137382  0.72578240     0.25300
C1506       C  0.28929962  0.50462153  0.74847086    -0.22800
C1507       C  0.29219294  0.52847669  0.77200138     0.20200
C1508       C  0.27103375  0.54890688  0.77275180     0.25300
C1509       C  0.24665079  0.54564373  0.75014662    -0.22700
C1510       C  0.24372493  0.52174483  0.72666728     0.20200
F1511       F  0.22001383  0.51788730  0.70527867    -0.12700
F1512       F  0.26143558  0.97807477  0.70367016    -0.15100
F1513       F  0.27480379  0.57241135  0.79438625    -0.15100
F1514       F  0.31594123  0.53235720  0.79330844    -0.12700
C1515       C  0.29268660  0.53095278  0.97629724     0.25300
C1516       C  0.28896038  0.50512118  0.99539575    -0.22800
C1517       C  0.26294474  0.99883742  0.01308909     0.20200
C1518       C  0.24098169  0.51845240  0.01238999     0.25300
C1519       C  0.24483901  0.54450635  0.99394412    -0.22700
C1520       C  0.27071013  0.55059663  0.97559658     0.20200
F1521       F  0.27493416  0.57595270  0.95829641    -0.12700
F1522       F  0.31788802  0.53737374  0.95943854    -0.15100
F1523       F  0.21574897  0.51193734  0.02905691    -0.15100
F1524       F  0.25873194  0.97341652  0.53019691    -0.12700
C1525       C  0.33901973  0.91990596  0.89328883     0.25300
C1526       C  0.36074879  0.93379797  0.91384115    -0.22800
C1527       C  0.37596474  0.95450724  0.89297784     0.20200
C1528       C  0.37570284  0.95464344  0.85262468     0.25300
C1529       C  0.36049617  0.93388228  0.83205143    -0.22700
C1530       C  0.33890020  0.91993838  0.85297337     0.20200
F1531       F  0.31586878  0.90918944  0.83480549    -0.12700
F1532       F  0.31609684  0.90910148  0.91186576    -0.15100
F1533       F  0.38746756  0.97702172  0.83411039    -0.15100
F1534       F  0.38838326  0.97653881  0.91129845    -0.12700
C1535       C  0.37457401  0.95480138  0.60276509     0.25300
C1536       C  0.35957355  0.93403481  0.58193222    -0.22800
C1537       C  0.33865560  0.91919040  0.60303003     0.20200
C1538       C  0.33918276  0.91863289  0.64340142     0.25300
C1539       C  0.36042726  0.93321070  0.66403255    -0.22700
C1540       C  0.37491675  0.95445793  0.64315654     0.20200
F1541       F  0.38672321  0.97678238  0.66154312    -0.12700
F1542       F  0.38633004  0.97726568  0.58444476    -0.15100
F1543       F  0.31687443  0.90667181  0.66201109    -0.15100
F1544       F  0.31563495  0.90819193  0.58514958    -0.12700
C1545       C  0.03140397  0.74135678  0.72576332     0.25300
C1546       C  0.50668779  0.74415721  0.74793148    -0.22800
C1547       C  0.50286775  0.76843758  0.77044383     0.20200
C1548       C  0.02353808  0.78959394  0.77087173     0.25300
C1549       C  0.04837318  0.78671692  0.74889326    -0.22700
C1550       C  0.05219465  0.76244693  0.72639512     0.20200
F1551       F  0.07638619  0.75894913  0.70579170    -0.12700
F1552       F  0.03564260  0.71787615  0.70430203    -0.15100
F1553       F  0.01888350  0.81336212  0.79161976    -0.15100
F1554       F  0.47863914  0.77203331  0.79096884    -0.12700
C1555       C  0.02732671  0.78522919  0.97399688     0.25300
C1556       C  0.05105966  0.78334317  0.99820812    -0.22800
C1557       C  0.05363748  0.75992071  0.52279814     0.20200
C1558       C  0.03285451  0.73870984  0.52300304     0.25300
C1559       C  0.00924390  0.74062508  0.99860951    -0.22700
C1560       C  0.50659297  0.76416173  0.97433031     0.20200
F1561       F  0.48328641  0.76729212  0.95196386    -0.12700
F1562       F  0.02364371  0.80806015  0.95100375    -0.15100
F1563       F  0.03605482  0.71599717  0.54633709    -0.15100
F1564       F  0.07660968  0.75727677  0.54588198    -0.12700
C1565       C  0.41809376  0.65141425  0.89301445     0.25300
C1566       C  0.42765261  0.67508435  0.91407353    -0.22800
C1567       C  0.43128933  0.70046546  0.89333090     0.20200
C1568       C  0.43087962  0.70068135  0.85295916     0.25300
C1569       C  0.42735249  0.67542665  0.83195379    -0.22700
C1570       C  0.41802324  0.65157676  0.85281349     0.20200
F1571       F  0.40663243  0.62894760  0.83459796    -0.12700
F1572       F  0.40649249  0.62869806  0.91093908    -0.15100
F1573       F  0.43218362  0.72594654  0.83468578    -0.15100
F1574       F  0.43361670  0.72545718  0.91202260    -0.12700
C1575       C  0.41780581  0.69782802  0.64312043     0.25300
C1576       C  0.43122344  0.67612654  0.66398485    -0.22800
C1577       C  0.45157719  0.66060211  0.64305505     0.20200
C1578       C  0.45119468  0.66023449  0.60267677     0.25300
C1579       C  0.43063044  0.67561176  0.58198538    -0.22700
C1580       C  0.41748415  0.69757494  0.60279913     0.20200
F1581       F  0.40804548  0.72100632  0.58460054    -0.12700
F1582       F  0.40858390  0.72140237  0.66119319    -0.15100
F1583       F  0.47323283  0.64790768  0.58417955    -0.15100
F1584       F  0.47416330  0.64898022  0.66106227    -0.12700
C1585       C  0.92924913  0.17451853  0.45834312     0.31700
C1586       C  0.92884535  0.17401026  0.03764104     0.31700
C1587       C  0.93282832  0.14539816  0.47754022    -0.04500
C1588       C  0.95297309  0.19129382  0.47803478    -0.05300
C1589       C  0.90260410  0.18619720  0.47775398    -0.05100
C1590       C  0.93167033  0.14468952  0.01793379    -0.04500
C1591       C  0.95254302  0.19127026  0.01805605    -0.05200
C1592       C  0.90176072  0.18533883  0.01778816    -0.05100
C1593       C  0.94270516  0.11880019  0.02889163    -0.30500
N1594       N  0.95277026  0.10540251  0.99733603     0.16000
C1595       C  0.94782494  0.12185005  0.46637746    -0.30500
H1596       H  0.95650762  0.11802569  0.43806235     0.17900
C1597       C  0.97420218  0.20868820  0.03012196    -0.29500
N1598       N  0.98773895  0.21906989  0.49863587     0.14700
C1599       C  0.97528333  0.20817861  0.46680356    -0.29500
C1600       C  0.87581905  0.19661267  0.02833194    -0.29800
N1601       N  0.86246648  0.20612211  0.99637456     0.15200
H1602       H  0.86757196  0.19895862  0.05715173     0.17800
C1603       C  0.87858146  0.19981481  0.46530872    -0.29800
H1604       H  0.87355787  0.20544641  0.43599983     0.17800
H1605       H  0.98172460  0.21281825  0.43762815     0.17800
H1606       H  0.94583923  0.11130133  0.05787803     0.17900
H1607       H  0.97895374  0.21438113  0.05950049     0.17800
C1608       C  0.92936204  0.17464467  0.20833814     0.31700
C1609       C  0.92900089  0.17493690  0.28770110     0.31700
C1610       C  0.93401139  0.14561500  0.22819378    -0.04500
C1611       C  0.95160141  0.19340268  0.22804782    -0.05300
C1612       C  0.90147844  0.18427294  0.22793163    -0.05100
C1613       C  0.93489906  0.14623690  0.26849873    -0.04500
C1614       C  0.95161670  0.19342302  0.26809267    -0.05200
C1615       C  0.90158033  0.18448289  0.26805024    -0.05100
C1616       C  0.94975502  0.12264627  0.27986970    -0.30500
N1617       N  0.95498777  0.10636005  0.24878837     0.16000
C1618       C  0.94496069  0.11974574  0.21723651    -0.30500
H1619       H  0.94781916  0.11207433  0.18829998     0.17900
C1620       C  0.97318051  0.21113129  0.27946166    -0.29500
N1621       N  0.98541745  0.22248525  0.24771474     0.14700
C1622       C  0.97266280  0.21161992  0.21611123    -0.29500
C1623       C  0.87651762  0.19647855  0.28018380    -0.29800
N1624       N  0.86114988  0.20348382  0.24876956     0.15200
H1625       H  0.87088958  0.20172264  0.30947297     0.17800
C1626       C  0.87576351  0.19562865  0.21693984    -0.29800
H1627       H  0.86832910  0.19899660  0.18797997     0.17800
H1628       H  0.97779651  0.21719777  0.18674459     0.17800
H1629       H  0.95782436  0.11849989  0.30839379     0.17900
H1630       H  0.97960440  0.21569070  0.30859482     0.17800
C1631       C  0.86226012  0.43213170  0.45805262     0.31700
C1632       C  0.86137549  0.43236050  0.03753247     0.31700
C1633       C  0.89099357  0.43796528  0.47790090    -0.04500
C1634       C  0.84270455  0.45345117  0.47739219    -0.05300
C1635       C  0.85369930  0.40400971  0.47764477    -0.05100
C1636       C  0.89049468  0.43824970  0.01821855    -0.04500
C1637       C  0.84209230  0.45347021  0.01730238    -0.05200
C1638       C  0.85314896  0.40418179  0.01792462    -0.05100
C1639       C  0.91722931  0.44639098  0.02990261    -0.30500
N1640       N  0.93350954  0.45154182  0.49848109     0.16000
C1641       C  0.91815376  0.44546243  0.46669771    -0.30500
H1642       H  0.92573054  0.44852571  0.43765426     0.17900
C1643       C  0.82235822  0.47308309  0.02843138    -0.29500
N1644       N  0.81140256  0.48501240  0.49632246     0.14700
C1645       C  0.82369775  0.47331060  0.46500697    -0.29500
C1646       C  0.84414959  0.37771978  0.02935039    -0.29800
N1647       N  0.83863506  0.36197657  0.49778658     0.15200
H1648       H  0.84105929  0.37029601  0.05841490     0.17800
C1649       C  0.84533257  0.37731523  0.46615328    -0.29800
H1650       H  0.84277026  0.36988582  0.43702305     0.17800
H1651       H  0.81846675  0.47826903  0.43552216     0.17800
H1652       H  0.92418729  0.44995843  0.05903525     0.17900
H1653       H  0.81608533  0.47805949  0.05756253     0.17800
C1654       C  0.86221243  0.43149125  0.20837960     0.31700
C1655       C  0.86225852  0.43188568  0.28784035     0.31700
C1656       C  0.89094654  0.43836887  0.22780437    -0.04500
C1657       C  0.84210972  0.45214576  0.22809588    -0.05300
C1658       C  0.85471418  0.40311310  0.22831829    -0.05100
C1659       C  0.89107821  0.43838623  0.26810878    -0.04500
C1660       C  0.84226731  0.45238764  0.26796197    -0.05200
C1661       C  0.85443131  0.40346198  0.26862704    -0.05100
C1662       C  0.91809545  0.44641274  0.27931577    -0.30500
N1663       N  0.93366957  0.45236876  0.24751029     0.16000
C1664       C  0.91766973  0.44676805  0.21611845    -0.30500
H1665       H  0.92485873  0.44996556  0.18694484     0.17900
C1666       C  0.82282779  0.47197426  0.27977230    -0.29500
N1667       N  0.81087214  0.48353059  0.24812966     0.14700
C1668       C  0.82242611  0.47159243  0.21637227    -0.29500
C1669       C  0.84530331  0.37713059  0.28049989    -0.29800
N1670       N  0.83985825  0.36109138  0.24916506     0.15200
H1671       H  0.84184608  0.37014877  0.30970818     0.17800
C1672       C  0.84646476  0.37625533  0.21729836    -0.29800
H1673       H  0.84375672  0.36862382  0.18830103     0.17800
H1674       H  0.81698693  0.47679661  0.18703887     0.17800
H1675       H  0.92549537  0.44965258  0.30833860     0.17900
H1676       H  0.81739510  0.47713578  0.30915010     0.17800
O1677       O  0.97865355  0.46428883  0.47550589    -0.76800
C1678       C  0.52143705  0.01775007  0.39294026     0.84300
O1679       O  0.57677890  0.47648391  0.01918301    -0.77900
O1680       O  0.56313845  0.07456920  0.47463737    -0.79400
O1681       O  0.96624830  0.06112563  0.02072417    -0.79200
O1682       O  0.95861884  0.49028700  0.02120977    -0.77800
Zn1683     Zn  0.51668601  0.48399968  0.46594662     1.55700
O1684       O  0.49196302  0.08082749  0.47414330    -0.79200
Cd1685     Cd  0.98686666  0.02293809  0.02901190     1.59700
Cd1686     Cd  0.55650108  0.01477110  0.02769662     1.59600
O1687       O  0.99850613  0.02184410  0.08469907    -0.79200
O1688       O  0.52127526  0.01812871  0.49649496    -1.89700
Cd1689     Cd  0.52519632  0.05311831  0.46540678     1.59900
O1690       O  0.54554077  0.01605375  0.08392873    -0.79100
O1691       O  0.52434599  0.04136742  0.40971526    -0.77800
C1692       C  0.57050948  0.45593998  0.49721345     0.84700
C1693       C  0.95825657  0.46918321  0.49865603     0.84400
O1694       O  0.51827400  0.49454752  0.41082442    -0.76700
C1695       C  0.97104201  0.08129306  0.99737086     0.85200
O1696       O  0.54870839  0.45647566  0.47563552    -0.76800
C1697       C  0.52214454  0.01901051  0.10155885     0.85300
C1698       C  0.58380846  0.06989509  0.49722872     0.85700
O1699       O  0.58433140  0.04825888  0.01900948    -0.79300
O1700       O  0.55004237  0.45679101  0.26879995    -0.76800
C1701       C  0.52175205  0.01771465  0.35155097     0.84300
O1702       O  0.95888244  0.49123834  0.22486417    -0.77900
O1703       O  0.49428215  0.08151946  0.27090099    -0.79400
O1704       O  0.58550517  0.04802760  0.22484726    -0.79200
O1705       O  0.57769785  0.47695309  0.22456102    -0.77800
Zn1706     Zn  0.51758639  0.48398058  0.27846623     1.55700
O1707       O  0.56518987  0.07319438  0.27119364    -0.79200
Cd1708     Cd  0.55726225  0.01498864  0.21595979     1.59700
Cd1709     Cd  0.98765797  0.02346896  0.21629703     1.59600
O1710       O  0.54593877  0.01621815  0.15989834    -0.79200
O1711       O  0.52226966  0.01818324  0.24795671    -1.89700
Cd1712     Cd  0.52668436  0.05290857  0.27926813     1.59900
O1713       O  0.99890237  0.02218225  0.16029494    -0.79100
O1714       O  0.52495612  0.04129590  0.33477224    -0.77800
C1715       C  0.95859238  0.46983079  0.24699054     0.84700
C1716       C  0.57183853  0.45651141  0.24699830     0.84400
O1717       O  0.51880349  0.49452319  0.33366247    -0.76700
C1718       C  0.58560066  0.06882934  0.24800960     0.85200
O1719       O  0.97932637  0.46437182  0.26924166    -0.76800
C1720       C  0.52236278  0.01915146  0.14285028     0.85300
C1721       C  0.97302853  0.08209509  0.24843521     0.85700
O1722       O  0.96770412  0.06190935  0.22542223    -0.79300
C1723       C  0.61712503  0.36325328  0.45780382     0.31700
C1724       C  0.61742684  0.36426974  0.03717060     0.31700
C1725       C  0.60668526  0.39079088  0.47706075    -0.04500
C1726       C  0.59930931  0.34068898  0.47821926    -0.05300
C1727       C  0.64655629  0.35957617  0.47709889    -0.05100
C1728       C  0.60669410  0.39098857  0.01715190    -0.04500
C1729       C  0.59956452  0.34077682  0.01823596    -0.05200
C1730       C  0.64645747  0.35961048  0.01753995    -0.05100
C1731       C  0.59498711  0.41613404  0.02897763    -0.30500
N1732       N  0.58786625  0.43121090  0.49735626     0.16000
C1733       C  0.59547178  0.41640474  0.46571197    -0.30500
H1734       H  0.59245572  0.42386251  0.43667102     0.17900
C1735       C  0.58285474  0.31833191  0.02990820    -0.29500
N1736       N  0.57196332  0.30552144  0.49828080     0.14700
C1737       C  0.58213398  0.31890044  0.46661691    -0.29500
C1738       C  0.67083022  0.34592468  0.02899573    -0.29800
N1739       N  0.68635552  0.33928175  0.49761446     0.15200
H1740       H  0.67555554  0.33869997  0.05778338     0.17800
C1741       C  0.67202193  0.34759741  0.46595485    -0.29800
H1742       H  0.67918703  0.34360197  0.43701953     0.17800
H1743       H  0.57724293  0.31328141  0.43725696     0.17800
H1744       H  0.59040834  0.42224833  0.05827119     0.17900
H1745       H  0.57828985  0.31213094  0.05918832     0.17800
C1746       C  0.61746536  0.36444582  0.20789110     0.31700
C1747       C  0.61774548  0.36416601  0.28730724     0.31700
C1748       C  0.60872322  0.39200809  0.22765602    -0.04500
C1749       C  0.59824835  0.34247458  0.22763258    -0.05300
C1750       C  0.64610317  0.35776121  0.22704164    -0.05100
C1751       C  0.60894062  0.39214170  0.26781459    -0.04500
C1752       C  0.59818985  0.34274028  0.26765841    -0.05200
C1753       C  0.64669944  0.35856090  0.26733384    -0.05100
C1754       C  0.59763860  0.41773438  0.27892495    -0.30500
N1755       N  0.58974467  0.43220710  0.24711936     0.16000
C1756       C  0.59675359  0.41694643  0.21563941    -0.30500
H1757       H  0.59139157  0.42252808  0.18639256     0.17900
C1758       C  0.57985687  0.32198828  0.27989999    -0.29500
N1759       N  0.56923213  0.30878573  0.24854297     0.14700
C1760       C  0.58068160  0.32068858  0.21658763    -0.29500
C1761       C  0.67275536  0.34789309  0.27819457    -0.29800
N1762       N  0.68639634  0.33827177  0.24651686     0.15200
H1763       H  0.68044073  0.34506194  0.30716326     0.17800
C1764       C  0.67007206  0.34350410  0.21540422    -0.29800
H1765       H  0.67453446  0.33596762  0.18671668     0.17800
H1766       H  0.57625362  0.31398464  0.18753855     0.17800
H1767       H  0.59423285  0.42512585  0.30790583     0.17900
H1768       H  0.57479409  0.31667337  0.30938007     0.17800
C1769       C  0.67435961  0.11877314  0.03810933     0.31700
C1770       C  0.67360446  0.12055991  0.45886297     0.31700
C1771       C  0.68365769  0.14668669  0.01942605    -0.04500
C1772       C  0.69316458  0.09726359  0.01751647    -0.05300
C1773       C  0.64546634  0.11256468  0.01896564    -0.05100
C1774       C  0.68257118  0.14811024  0.47941495    -0.04500
C1775       C  0.69306833  0.09857412  0.47752721    -0.05200
C1776       C  0.64459985  0.11452867  0.47865411    -0.05100
C1777       C  0.69371170  0.17413495  0.46926286    -0.30500
N1778       N  0.70377989  0.18697299  0.50124600     0.16000
C1779       C  0.69771461  0.17046126  0.03205058    -0.30500
H1780       H  0.70457238  0.17462401  0.06111832     0.17900
C1781       C  0.71193758  0.07878794  0.46437855    -0.29500
N1782       N  0.72292790  0.06522061  0.49516258     0.14700
C1783       C  0.71136176  0.07593560  0.02768394    -0.29500
C1784       C  0.61959460  0.10158681  0.46723478    -0.29800
N1785       N  0.60715685  0.08939874  0.49822496     0.15200
H1786       H  0.61217053  0.09883803  0.43813980     0.17800
C1787       C  0.62322709  0.09504634  0.02942969    -0.29800
H1788       H  0.62000862  0.08557538  0.05741048     0.17800
H1789       H  0.71647603  0.06907304  0.05647849     0.17800
H1790       H  0.69632944  0.18246697  0.44055262     0.17900
H1791       H  0.71747936  0.07466543  0.43473505     0.17800
C1792       C  0.67486493  0.12055646  0.28821680     0.31700
C1793       C  0.67553669  0.12004820  0.20883028     0.31700
C1794       C  0.68217022  0.14885484  0.26814599    -0.04500
C1795       C  0.69564480  0.10016451  0.26887963    -0.05300
C1796       C  0.64634480  0.11292701  0.26835928    -0.05100
C1797       C  0.68267909  0.14831138  0.22795789    -0.04500
C1798       C  0.69577529  0.09962223  0.22885206    -0.05200
C1799       C  0.64732101  0.11162228  0.22809838    -0.05100
C1800       C  0.69548749  0.17287752  0.21557284    -0.30500
N1801       N  0.70234955  0.18845343  0.24679727     0.16000
C1802       C  0.69365866  0.17450921  0.27875411    -0.30500
H1803       H  0.69721117  0.18210489  0.30757346     0.17900
C1804       C  0.71390972  0.07853192  0.21788399    -0.29500
N1805       N  0.72545380  0.06712242  0.24988234     0.14700
C1806       C  0.71440033  0.08003800  0.28123567    -0.29500
C1807       C  0.62533633  0.09426093  0.21686220    -0.29800
N1808       N  0.60929881  0.08782723  0.24790320     0.15200
H1809       H  0.62203331  0.08572125  0.18842272     0.17800
C1810       C  0.62142087  0.09955563  0.27933579    -0.29800
H1811       H  0.61358971  0.09655108  0.30826507     0.17800
H1812       H  0.71927917  0.07479407  0.31071003     0.17800
H1813       H  0.70209720  0.17760743  0.18647012     0.17900
H1814       H  0.71850996  0.07183758  0.18883062     0.17800
O1815       O  0.75015391  0.26756274  0.41205773    -0.76800
C1816       C  0.72300497  0.21049089  0.50104782     0.84300
O1817       O  0.73040223  0.32612760  0.02202308    -0.77900
O1818       O  0.77961580  0.24833561  0.08547477    -0.79400
O1819       O  0.83780345  0.24577766  0.47521553    -0.79200
O1820       O  0.79704336  0.27508115  0.41023551    -0.77800
Zn1821     Zn  0.73912699  0.26796843  0.46701076     1.55700
O1822       O  0.81687366  0.21734269  0.01781243    -0.79200
Cd1823     Cd  0.80841352  0.27759699  0.46613998     1.59700
Cd1824     Cd  0.76889300  0.30622868  0.03020094     1.59600
O1825       O  0.82734487  0.31700282  0.47421718    -0.79200
O1826       O  0.77331433  0.27216050  0.49754554    -1.89700
Cd1827     Cd  0.77861127  0.23740347  0.02906475     1.59900
O1828       O  0.80104868  0.33512429  0.02124330    -0.79100
O1829       O  0.74481961  0.20970312  0.02255786    -0.77800
C1830       C  0.71074285  0.32136696  0.49790296     0.84700
C1831       C  0.77336922  0.27084140  0.39398513     0.84400
O1832       O  0.71846137  0.23115681  0.47843800    -0.76700
C1833       C  0.83781497  0.22371691  0.99622244     0.85200
O1834       O  0.71188281  0.30061217  0.47471649    -0.76800
C1835       C  0.82183759  0.33672287  0.99791469     0.85300
C1836       C  0.77570086  0.27150119  0.10288267     0.85700
O1837       O  0.77086947  0.29472342  0.08606878    -0.79300
O1838       O  0.71884697  0.23191906  0.22397448    -0.76800
C1839       C  0.71115448  0.32084140  0.24684778     0.84300
O1840       O  0.79974864  0.27434958  0.16081504    -0.77900
O1841       O  0.80146911  0.33477207  0.27164898    -0.79400
O1842       O  0.77585219  0.24727272  0.33565581    -0.79200
O1843       O  0.74329078  0.21009007  0.26972777    -0.77800
Zn1844     Zn  0.74038002  0.26841036  0.21534144     1.55700
O1845       O  0.77015584  0.29414703  0.33593578    -0.79200
Cd1846     Cd  0.77733826  0.23674676  0.27901755     1.59700
Cd1847     Cd  0.80967149  0.27652470  0.21752883     1.59600
O1848       O  0.81560440  0.21577534  0.26974261    -0.79200
O1849       O  0.77379017  0.27174074  0.24750108    -1.89700
Cd1850     Cd  0.76908827  0.30583604  0.28006230     1.59900
O1851       O  0.83782211  0.24389072  0.22788119    -0.79100
O1852       O  0.73048642  0.32552454  0.27148358    -0.77800
C1853       C  0.77610298  0.27148814  0.14390103     0.84700
C1854       C  0.72226286  0.21128312  0.24689278     0.84400
O1855       O  0.71293777  0.30053215  0.22307843    -0.76700
C1856       C  0.77289413  0.27064572  0.35293382     0.85200
O1857       O  0.75256400  0.26914644  0.16132677    -0.76800
C1858       C  0.83699884  0.22175131  0.24871862     0.85300
C1859       C  0.82297391  0.33585000  0.24943961     0.85700
O1860       O  0.82906171  0.31566682  0.22670569    -0.79300
C1861       C  0.66161080  0.09774270  0.39366877     0.25300
C1862       C  0.67538245  0.11934068  0.41452887    -0.22800
C1863       C  0.69681515  0.13386291  0.39394554     0.20200
C1864       C  0.69722065  0.13379078  0.35360279     0.25300
C1865       C  0.67633588  0.11900973  0.33259418    -0.22700
C1866       C  0.66227231  0.09746470  0.35335283     0.20200
F1867       F  0.65288997  0.07391242  0.33528152    -0.12700
F1868       F  0.65107865  0.07466457  0.41190612    -0.15100
F1869       F  0.72052630  0.14439081  0.33575635    -0.15100
F1870       F  0.71992639  0.14420789  0.41230488    -0.12700
C1871       C  0.70080949  0.11824471  0.10282099     0.25300
C1872       C  0.67499260  0.11980660  0.08240612    -0.22800
C1873       C  0.65063596  0.12729244  0.10377558     0.20200
C1874       C  0.65109382  0.12802751  0.14392754     0.25300
C1875       C  0.67580704  0.12107670  0.16455841    -0.22700
C1876       C  0.70122825  0.11903742  0.14319897     0.23000
F1877       F  0.72674057  0.11955445  0.16110332    -0.12700
F1878       F  0.72594213  0.11762385  0.08379370    -0.15100
F1879       F  0.62762932  0.13760418  0.16230754    -0.15100
F1880       F  0.62668064  0.13619649  0.08613344    -0.12700
C1881       C  0.63093497  0.34115249  0.35221476     0.25300
C1882       C  0.61603177  0.36208887  0.33160583    -0.22800
C1883       C  0.59408122  0.37538482  0.35239710     0.20200
C1884       C  0.59365227  0.37481269  0.39269750     0.25300
C1885       C  0.61533328  0.36121811  0.41349875    -0.22700
C1886       C  0.63058732  0.34072710  0.39259352     0.20200
F1887       F  0.64187584  0.31805404  0.41066938    -0.12700
F1888       F  0.64253463  0.31883108  0.33371459    -0.15100
F1889       F  0.56983927  0.38380916  0.41073156    -0.15100
F1890       F  0.57087194  0.38542802  0.33410766    -0.12700
C1891       C  0.64065948  0.37604788  0.10230619     0.25300
C1892       C  0.61693594  0.36624361  0.08144824    -0.22800
C1893       C  0.59152427  0.36246855  0.10242705     0.20200
C1894       C  0.59147728  0.36269937  0.14279610     0.25300
C1895       C  0.61693055  0.36613631  0.16360581    -0.22700
C1896       C  0.64074311  0.37577124  0.14259418     0.20200
F1897       F  0.66357685  0.38690664  0.16080640    -0.12700
F1898       F  0.66311773  0.38805216  0.08404911    -0.15100
F1899       F  0.56614816  0.36139898  0.16127518    -0.15100
F1900       F  0.56630566  0.36019401  0.08401985    -0.12700
C1901       C  0.76495923  0.00137413  0.22578163     0.25300
C1902       C  0.78929912  0.00462151  0.24847068    -0.22800
C1903       C  0.79219207  0.02847634  0.27200197     0.20200
C1904       C  0.77103277  0.04890645  0.27275259     0.25300
C1905       C  0.74665008  0.04564363  0.25014676    -0.22700
C1906       C  0.74372463  0.02174508  0.22666663     0.20200
F1907       F  0.72001382  0.01788780  0.20527734    -0.12700
F1908       F  0.76143515  0.47807488  0.20366954    -0.15100
F1909       F  0.77480248  0.07241054  0.29438792    -0.15100
F1910       F  0.81594009  0.03235659  0.29330966    -0.12700
C1911       C  0.79268635  0.03095245  0.47629752     0.25300
C1912       C  0.78895940  0.00512036  0.49539452    -0.22800
C1913       C  0.76294279  0.49883592  0.51308578     0.20200
C1914       C  0.74098041  0.01845158  0.51238722     0.25300
C1915       C  0.74483855  0.04450613  0.49394322    -0.22700
C1916       C  0.77071016  0.05059663  0.47559707     0.20200
F1917       F  0.77493485  0.07595315  0.45829846    -0.12700
F1918       F  0.81788823  0.03737353  0.45944013    -0.15100
F1919       F  0.71574716  0.01193629  0.52905247    -0.15100
F1920       F  0.75873453  0.47341838  0.03020230    -0.12700
C1921       C  0.83901974  0.41990462  0.39328894     0.25300
C1922       C  0.86074848  0.43379718  0.41384125    -0.22800
C1923       C  0.87596384  0.45450688  0.39297789     0.20200
C1924       C  0.87570166  0.45464329  0.35262472     0.25300
C1925       C  0.86049543  0.43388184  0.33205140    -0.22700
C1926       C  0.83890000  0.41993721  0.35297347     0.20200
F1927       F  0.81586872  0.40918782  0.33480576    -0.12700
F1928       F  0.81609718  0.40909948  0.41186589    -0.15100
F1929       F  0.88746578  0.47702189  0.33411046    -0.15100
F1930       F  0.88838208  0.47653858  0.41129853    -0.12700
C1931       C  0.87457457  0.45480110  0.10276496     0.25300
C1932       C  0.85957415  0.43403457  0.08193200    -0.22800
C1933       C  0.83865604  0.41919023  0.10302964     0.20200
C1934       C  0.83918295  0.41863283  0.14340104     0.25300
C1935       C  0.86042731  0.43321066  0.16403238    -0.22700
C1936       C  0.87491709  0.45445773  0.14315642     0.20200
F1937       F  0.88672363  0.47678213  0.16154297    -0.12700
F1938       F  0.88633077  0.47726533  0.08444465    -0.15100
F1939       F  0.81687451  0.40667176  0.16201051    -0.15100
F1940       F  0.81563546  0.40819178  0.08514904    -0.12700
C1941       C  0.53140398  0.24135605  0.22576187     0.25300
C1942       C  0.00668690  0.24415792  0.24792795    -0.22800
C1943       C  0.00286667  0.26843903  0.27043869     0.20200
C1944       C  0.52353769  0.28959479  0.27086708     0.25300
C1945       C  0.54837377  0.28671613  0.24889113    -0.22700
C1946       C  0.55219535  0.26244551  0.22639429     0.20200
F1947       F  0.57638765  0.25894645  0.20579291    -0.12700
F1948       F  0.53564270  0.21787464  0.20430219    -0.15100
F1949       F  0.51888302  0.31336377  0.29161337    -0.15100
F1950       F  0.97863736  0.27203601  0.29096173    -0.12700
C1951       C  0.52732211  0.28523544  0.47400870     0.25300
C1952       C  0.55105975  0.28334424  0.49821050    -0.22800
C1953       C  0.55363282  0.25992405  0.02280475     0.20200
C1954       C  0.53284995  0.23871309  0.02300985     0.25300
C1955       C  0.50924391  0.24062686  0.49861175    -0.22700
C1956       C  0.00658806  0.26416816  0.47434237     0.20200
F1957       F  0.98327705  0.26730259  0.45198547    -0.12700
F1958       F  0.52363549  0.30807089  0.45102493    -0.15100
F1959       F  0.53604608  0.21600515  0.04635353    -0.15100
F1960       F  0.57660045  0.25728426  0.04589780    -0.12700
C1961       C  0.91809454  0.15141561  0.39301473     0.25300
C1962       C  0.92765354  0.17508577  0.41407356    -0.22800
C1963       C  0.93129015  0.20046677  0.39333065     0.20200
C1964       C  0.93088051  0.20068238  0.35295886     0.25300
C1965       C  0.92735342  0.17542752  0.33195378    -0.22700
C1966       C  0.91802408  0.15157783  0.35281379     0.20200
F1967       F  0.90663321  0.12894858  0.33459853    -0.12700
F1968       F  0.90649301  0.12869966  0.41093961    -0.15100
F1969       F  0.93218423  0.22594748  0.33468522    -0.15100
F1970       F  0.93361703  0.22545864  0.41202209    -0.12700
C1971       C  0.91780453  0.19782684  0.14312034     0.25300
C1972       C  0.93122236  0.17612546  0.16398472    -0.22800
C1973       C  0.95157617  0.16060113  0.14305488     0.20200
C1974       C  0.95119384  0.16023373  0.10267661     0.25300
C1975       C  0.93062962  0.17561100  0.08198519    -0.22700
C1976       C  0.91748309  0.19757397  0.10279904     0.20200
F1977       F  0.90804459  0.22100551  0.08460065    -0.12700
F1978       F  0.90858210  0.22140095  0.16119320    -0.15100
F1979       F  0.97323214  0.14790715  0.08417944    -0.15100
F1980       F  0.97416226  0.14897918  0.16106207    -0.12700
C1981       C  0.92924818  0.17451702  0.95834302     0.31700
C1982       C  0.92884623  0.17401116  0.53764120     0.31700
C1983       C  0.93282663  0.14539669  0.97754032    -0.04500
C1984       C  0.95297265  0.19129169  0.97803437    -0.05300
C1985       C  0.90260348  0.18619655  0.97775378    -0.05100
C1986       C  0.93167195  0.14469071  0.51793358    -0.04500
C1987       C  0.95254357  0.19127172  0.51805653    -0.05200
C1988       C  0.90176135  0.18533928  0.51778838    -0.05100
C1989       C  0.94270599  0.11880100  0.52889124    -0.30500
N1990       N  0.95277075  0.10540328  0.49733543     0.16000
C1991       C  0.94782396  0.12184893  0.96637788    -0.30500
H1992       H  0.95650686  0.11802472  0.93806298     0.17900
C1993       C  0.97420291  0.20868917  0.53012305    -0.29500
N1994       N  0.98773861  0.21906816  0.99863446     0.14700
C1995       C  0.97528325  0.20817571  0.96680265    -0.29500
C1996       C  0.87581956  0.19661281  0.52833226    -0.29800
N1997       N  0.86246680  0.20612209  0.49637491     0.15200
H1998       H  0.86757261  0.19895882  0.55715212     0.17800
C1999       C  0.87858106  0.19981450  0.96530846    -0.29800
H2000       H  0.87355746  0.20544601  0.93599936     0.17800
H2001       H  0.98172485  0.21281395  0.93762692     0.17800
H2002       H  0.94583975  0.11130192  0.55787743     0.17900
H2003       H  0.97895509  0.21438117  0.55950180     0.17800
C2004       C  0.92936261  0.17464535  0.70833818     0.31700
C2005       C  0.92900043  0.17493649  0.78770111     0.31700
C2006       C  0.93401077  0.14561519  0.72819323    -0.04500
C2007       C  0.95160232  0.19340239  0.72804885    -0.05300
C2008       C  0.90147907  0.18427429  0.72793127    -0.05100
C2009       C  0.93489788  0.14623656  0.76849828    -0.04500
C2010       C  0.95161712  0.19342215  0.76809369    -0.05200
C2011       C  0.90158045  0.18448361  0.76804987    -0.05100
C2012       C  0.94975422  0.12264610  0.77986900    -0.30500
N2013       N  0.95498764  0.10636035  0.74878748     0.16000
C2014       C  0.94496080  0.11974629  0.71723570    -0.30500
H2015       H  0.94781997  0.11207529  0.68829898     0.17900
C2016       C  0.97318099  0.21113003  0.77946368    -0.29500
N2017       N  0.98541844  0.22248437  0.74771734     0.14700
C2018       C  0.97266402  0.21161962  0.71611326    -0.29500
C2019       C  0.87651770  0.19647926  0.78018326    -0.29800
N2020       N  0.86115046  0.20348529  0.74876891     0.15200
H2021       H  0.87088921  0.20172264  0.80947253     0.17800
C2022       C  0.87576441  0.19563055  0.71693925    -0.29800
H2023       H  0.86833029  0.19899888  0.68797935     0.17800
H2024       H  0.97779791  0.21719807  0.68674690     0.17800
H2025       H  0.95782345  0.11849962  0.80839306     0.17900
H2026       H  0.97960439  0.21568910  0.80859713     0.17800
C2027       C  0.86226051  0.43213227  0.95805241     0.31700
C2028       C  0.86137489  0.43236055  0.53753271     0.31700
C2029       C  0.89099413  0.43796516  0.97790063    -0.04500
C2030       C  0.84270540  0.45345198  0.97739237    -0.05300
C2031       C  0.85369920  0.40401029  0.97764416    -0.05100
C2032       C  0.89049403  0.43825008  0.51821882    -0.04500
C2033       C  0.84209135  0.45346975  0.51730221    -0.05200
C2034       C  0.85314886  0.40418154  0.51792524    -0.05100
C2035       C  0.91722859  0.44639160  0.52990290    -0.30500
N2036       N  0.93351026  0.45154121  0.99848079     0.16000
C2037       C  0.91815439  0.44546209  0.96669741    -0.30500
H2038       H  0.92573114  0.44852548  0.93765400     0.17900
C2039       C  0.82235691  0.47308244  0.52843074    -0.29500
N2040       N  0.81140393  0.48501348  0.99632336     0.14700
C2041       C  0.82369885  0.47331180  0.96500757    -0.29500
C2042       C  0.84414943  0.37771960  0.52935133    -0.29800
N2043       N  0.83863492  0.36197704  0.99778550     0.15200
H2044       H  0.84105879  0.37029611  0.55841586     0.17800
C2045       C  0.84533215  0.37731596  0.96615229    -0.29800
H2046       H  0.84276956  0.36988687  0.93702206     0.17800
H2047       H  0.81846773  0.47827042  0.93552297     0.17800
H2048       H  0.92418656  0.44995907  0.55903554     0.17900
H2049       H  0.81608390  0.47805911  0.55756179     0.17800
C2050       C  0.86221269  0.43149135  0.70837972     0.31700
C2051       C  0.86225923  0.43188602  0.78784042     0.31700
C2052       C  0.89094696  0.43836889  0.72780411    -0.04500
C2053       C  0.84211022  0.45214600  0.72809608    -0.05300
C2054       C  0.85471438  0.40311331  0.72831864    -0.05100
C2055       C  0.89107888  0.43838627  0.76810852    -0.04500
C2056       C  0.84226807  0.45238804  0.76796213    -0.05200
C2057       C  0.85443166  0.40346232  0.76862739    -0.05100
C2058       C  0.91809626  0.44641258  0.77931518    -0.30500
N2059       N  0.93367016  0.45236868  0.74750953     0.16000
C2060       C  0.91767008  0.44676810  0.71611788    -0.30500
H2061       H  0.92485883  0.44996578  0.68694415     0.17900
C2062       C  0.82282855  0.47197460  0.77977251    -0.29500
N2063       N  0.81087266  0.48353074  0.74812997     0.14700
C2064       C  0.82242646  0.47159250  0.71637251    -0.29500
C2065       C  0.84530318  0.37713115  0.78050050    -0.29800
N2066       N  0.83985790  0.36109191  0.74916574     0.15200
H2067       H  0.84184575  0.37014957  0.80970882     0.17800
C2068       C  0.84646464  0.37625562  0.71729895    -0.29800
H2069       H  0.84375652  0.36862401  0.68830164     0.17800
H2070       H  0.81698703  0.47679648  0.68703923     0.17800
H2071       H  0.92549643  0.44965228  0.80833789     0.17900
H2072       H  0.81739595  0.47713621  0.80915049     0.17800
O2073       O  0.97865430  0.46428839  0.97550573    -0.76800
C2074       C  0.52143704  0.01775018  0.89294008     0.84300
O2075       O  0.57677851  0.47648379  0.51918255    -0.77900
O2076       O  0.56313884  0.07456902  0.97463698    -0.79400
O2077       O  0.96624821  0.06112622  0.52072366    -0.79200
O2078       O  0.95861834  0.49028748  0.52121012    -0.77800
Zn2079     Zn  0.51668655  0.48399959  0.96594649     1.55700
O2080       O  0.49196309  0.08082736  0.97414408    -0.79200
Cd2081     Cd  0.98686633  0.02293854  0.52901169     1.59700
Cd2082     Cd  0.55650080  0.01477098  0.52769628     1.59600
O2083       O  0.99850602  0.02184490  0.58469878    -0.79200
O2084       O  0.52127561  0.01812862  0.99649503    -1.89700
Cd2085     Cd  0.52519647  0.05311829  0.96540688     1.59900
O2086       O  0.54554059  0.01605373  0.58392833    -0.79100
O2087       O  0.52434564  0.04136753  0.90971521    -0.77800
C2088       C  0.57051006  0.45594015  0.99721372     0.84700
C2089       C  0.95825722  0.46918270  0.99865576     0.84400
O2090       O  0.51827441  0.49454758  0.91082422    -0.76700
C2091       C  0.97104203  0.08129348  0.49737013     0.85200
O2092       O  0.54870910  0.45647581  0.97563556    -0.76800
C2093       C  0.52214445  0.01901092  0.60155851     0.85300
C2094       C  0.58380882  0.06989502  0.99722845     0.85700
O2095       O  0.58433117  0.04825876  0.51900939    -0.79300
O2096       O  0.55004303  0.45679181  0.76879996    -0.76800
C2097       C  0.52175194  0.01771487  0.85155074     0.84300
O2098       O  0.95888268  0.49123859  0.72486373    -0.77900
O2099       O  0.49428224  0.08151995  0.77090017    -0.79400
O2100       O  0.58550535  0.04802796  0.72484710    -0.79200
O2101       O  0.57769817  0.47695389  0.72456066    -0.77800
Zn2102     Zn  0.51758671  0.48398102  0.77846586     1.55700
O2103       O  0.56519030  0.07319451  0.77119391    -0.79200
Cd2104     Cd  0.55726235  0.01498924  0.71595929     1.59700
Cd2105     Cd  0.98765809  0.02346934  0.71629663     1.59600
O2106       O  0.54593884  0.01621879  0.65989788    -0.79200
O2107       O  0.52226984  0.01818369  0.74795637    -1.89700
Cd2108     Cd  0.52668446  0.05290899  0.77926789     1.59900
O2109       O  0.99890241  0.02218282  0.66029460    -0.79100
O2110       O  0.52495591  0.04129618  0.83477206    -0.77800
C2111       C  0.95859288  0.46983084  0.74698974     0.84700
C2112       C  0.57183915  0.45651233  0.74699823     0.84400
O2113       O  0.51880345  0.49452355  0.83366218    -0.76700
C2114       C  0.58560109  0.06882944  0.74800983     0.85200
O2115       O  0.97932698  0.46437187  0.76924067    -0.76800
C2116       C  0.52236280  0.01915195  0.64284991     0.85300
C2117       C  0.97302859  0.08209553  0.74843440     0.85700
O2118       O  0.96770416  0.06190964  0.72542167    -0.79300
C2119       C  0.61712493  0.36325333  0.95780380     0.31700
C2120       C  0.61742749  0.36427013  0.53717065     0.31700
C2121       C  0.60668561  0.39079104  0.97706089    -0.04500
C2122       C  0.59930871  0.34068918  0.97821875    -0.05300
C2123       C  0.64655592  0.35957550  0.97709915    -0.05100
C2124       C  0.60669399  0.39098860  0.51715175    -0.04500
C2125       C  0.59956571  0.34077667  0.51823652    -0.05200
C2126       C  0.64645810  0.35961141  0.51753979    -0.05100
C2127       C  0.59498679  0.41613402  0.52897739    -0.30500
N2128       N  0.58786691  0.43121114  0.99735656     0.16000
C2129       C  0.59547247  0.41640507  0.96571218    -0.30500
H2130       H  0.59245652  0.42386289  0.93667138     0.17900
C2131       C  0.58285619  0.31833177  0.52990941    -0.29500
N2132       N  0.57196265  0.30552116  0.99827928     0.14700
C2133       C  0.58213422  0.31890017  0.96661577    -0.29500
C2134       C  0.67083050  0.34592490  0.52899538    -0.29800
N2135       N  0.68635554  0.33928203  0.99761486     0.15200
H2136       H  0.67555569  0.33870001  0.55778295     0.17800
C2137       C  0.67202192  0.34759753  0.96595513    -0.29800
H2138       H  0.67918723  0.34360246  0.93701995     0.17800
H2139       H  0.57724501  0.31328055  0.93725564     0.17800
H2140       H  0.59040828  0.42224847  0.55827092     0.17900
H2141       H  0.57829168  0.31213064  0.55918958     0.17800
C2142       C  0.61746488  0.36444645  0.70789123     0.31700
C2143       C  0.61774532  0.36416689  0.78730737     0.31700
C2144       C  0.60872385  0.39200911  0.72765607    -0.04500
C2145       C  0.59824705  0.34247598  0.72763302    -0.05300
C2146       C  0.64610248  0.35776082  0.72704170    -0.05100
C2147       C  0.60894137  0.39214282  0.76781467    -0.04500
C2148       C  0.59818882  0.34274180  0.76765886    -0.05200
C2149       C  0.64669895  0.35856073  0.76733380    -0.05100
C2150       C  0.59763947  0.41773554  0.77892498    -0.30500
N2151       N  0.58974553  0.43220822  0.74711938     0.16000
C2152       C  0.59675429  0.41694746  0.71563946    -0.30500
H2153       H  0.59139192  0.42252894  0.68639264     0.17900
C2154       C  0.57985582  0.32198995  0.77990087    -0.29500
N2155       N  0.56923071  0.30878736  0.74854412     0.14700
C2156       C  0.58067996  0.32069010  0.71658848    -0.29500
C2157       C  0.67275513  0.34789349  0.77819440    -0.29800
N2158       N  0.68639606  0.33827214  0.74651667     0.15200
H2159       H  0.68044078  0.34506284  0.80716304     0.17800
C2160       C  0.67007156  0.34350411  0.71540411    -0.29800
H2161       H  0.67453405  0.33596778  0.68671652     0.17800
H2162       H  0.57625197  0.31398590  0.68753960     0.17800
H2163       H  0.59423353  0.42512696  0.80790593     0.17900
H2164       H  0.57479364  0.31667489  0.80938104     0.17800
C2165       C  0.67435945  0.11877309  0.53810930     0.31700
C2166       C  0.67360498  0.12055997  0.95886305     0.31700
C2167       C  0.68365736  0.14668666  0.51942589    -0.04500
C2168       C  0.69316445  0.09726361  0.51751627    -0.05300
C2169       C  0.64546613  0.11256454  0.51896580    -0.05100
C2170       C  0.68257165  0.14811029  0.97941512    -0.04500
C2171       C  0.69306869  0.09857412  0.97752743    -0.05200
C2172       C  0.64460025  0.11452874  0.97865392    -0.05100
C2173       C  0.69371201  0.17413511  0.96926322    -0.30500
N2174       N  0.70378000  0.18697319  0.00124643     0.16000
C2175       C  0.69771448  0.17046116  0.53205022    -0.30500
H2176       H  0.70457244  0.17462390  0.56111795     0.17900
C2177       C  0.71193794  0.07878789  0.96437895    -0.29500
N2178       N  0.72292805  0.06522053  0.99516311     0.14700
C2179       C  0.71136181  0.07593569  0.52768356    -0.29500
C2180       C  0.61959516  0.10158659  0.96723440    -0.29800
N2181       N  0.60715726  0.08939864  0.99822460     0.15200
H2182       H  0.61217136  0.09883755  0.93813942     0.17800
C2183       C  0.62322688  0.09504621  0.52942995    -0.29800
H2184       H  0.62000854  0.08557513  0.55741063     0.17800
H2185       H  0.71647626  0.06907315  0.55647804     0.17800
H2186       H  0.69632973  0.18246724  0.94055293     0.17900
H2187       H  0.71747991  0.07466544  0.93473555     0.17800
C2188       C  0.67486572  0.12055629  0.78821697     0.31700
C2189       C  0.67553719  0.12004816  0.70883041     0.31700
C2190       C  0.68217086  0.14885473  0.76814618    -0.04500
C2191       C  0.69564555  0.10016445  0.76887960    -0.05300
C2192       C  0.64634555  0.11292674  0.76835964    -0.05100
C2193       C  0.68267960  0.14831133  0.72795807    -0.04500
C2194       C  0.69577591  0.09962221  0.72885201    -0.05200
C2195       C  0.64732162  0.11162211  0.72809872    -0.05100
C2196       C  0.69548785  0.17287756  0.71557300    -0.30500
N2197       N  0.70234990  0.18845346  0.74679747     0.16000
C2198       C  0.69365920  0.17450914  0.77875430    -0.30500
H2199       H  0.69721173  0.18210484  0.80757368     0.17900
C2200       C  0.71391026  0.07853188  0.71788384    -0.29500
N2201       N  0.72545436  0.06712233  0.74988211     0.14700
C2202       C  0.71440103  0.08003789  0.78123554    -0.29500
C2203       C  0.62533689  0.09426081  0.71686259    -0.29800
N2204       N  0.60929945  0.08782707  0.74790367     0.15200
H2205       H  0.62203374  0.08572126  0.68842316     0.17800
C2206       C  0.62142170  0.09955527  0.77933625    -0.29800
H2207       H  0.61359068  0.09655054  0.80826566     0.17800
H2208       H  0.71927993  0.07479393  0.81070978     0.17800
H2209       H  0.70209740  0.17760755  0.68647035     0.17900
H2210       H  0.71851044  0.07183751  0.68883032     0.17800
O2211       O  0.75015359  0.26756282  0.91205791    -0.76800
C2212       C  0.72300495  0.21049120  0.00104835     0.84300
O2213       O  0.73040207  0.32612708  0.52202284    -0.77900
O2214       O  0.77961560  0.24833512  0.58547488    -0.79400
O2215       O  0.83780333  0.24577781  0.97521514    -0.79200
O2216       O  0.79704305  0.27508106  0.91023542    -0.77800
Zn2217     Zn  0.73912690  0.26796872  0.96701106     1.55700
O2218       O  0.81687380  0.21734233  0.51781259    -0.79200
Cd2219     Cd  0.80841344  0.27759722  0.96613972     1.59700
Cd2220     Cd  0.76889282  0.30622822  0.53020095     1.59600
O2221       O  0.82734478  0.31700318  0.97421629    -0.79200
O2222       O  0.77331434  0.27216089  0.99754556    -1.89700
Cd2223     Cd  0.77861127  0.23740303  0.52906473     1.59900
O2224       O  0.80104861  0.33512388  0.52124404    -0.79100
O2225       O  0.74481956  0.20970278  0.52255747    -0.77800
C2226       C  0.71074297  0.32136739  0.99790328     0.84700
C2227       C  0.77336886  0.27084133  0.89398518     0.84400
O2228       O  0.71846125  0.23115715  0.97843861    -0.76700
C2229       C  0.83781516  0.22371673  0.49622276     0.85200
O2230       O  0.71188290  0.30061255  0.97471690    -0.76800
C2231       C  0.82183767  0.33672244  0.49791567     0.85300
C2232       C  0.77570043  0.27150072  0.60288268     0.85700
O2233       O  0.77086895  0.29472287  0.58606868    -0.79300
O2234       O  0.71884673  0.23191944  0.72397513    -0.76800
C2235       C  0.71115428  0.32084189  0.74684761     0.84300
O2236       O  0.79974819  0.27434994  0.66081496    -0.77900
O2237       O  0.80146897  0.33477242  0.77165012    -0.79400
O2238       O  0.77585233  0.24727287  0.83565571    -0.79200
O2239       O  0.74329128  0.21009015  0.76972742    -0.77800
Zn2240     Zn  0.74037975  0.26841068  0.71534163     1.55700
O2241       O  0.77015502  0.29414706  0.83593600    -0.79200
Cd2242     Cd  0.77733848  0.23674718  0.77901734     1.59700
Cd2243     Cd  0.80967108  0.27652550  0.71752869     1.59600
O2244       O  0.81560486  0.21577624  0.76974211    -0.79200
O2245       O  0.77378994  0.27174125  0.74750116    -1.89700
Cd2246     Cd  0.76908791  0.30583643  0.78006265     1.59900
O2247       O  0.83782220  0.24389199  0.72788083    -0.79100
O2248       O  0.73048616  0.32552506  0.77148351    -0.77800
C2249       C  0.77610257  0.27148792  0.64390105     0.84700
C2250       C  0.72226306  0.21128329  0.74689294     0.84400
O2251       O  0.71293762  0.30053260  0.72307833    -0.76700
C2252       C  0.77289371  0.27064573  0.85293387     0.85200
O2253       O  0.75256362  0.26914614  0.66132687    -0.76800
C2254       C  0.83699921  0.22175251  0.74871812     0.85300
C2255       C  0.82297351  0.33585058  0.74944028     0.85700
O2256       O  0.82906095  0.31566769  0.72670569    -0.79300
C2257       C  0.66161194  0.09774240  0.89366894     0.25300
C2258       C  0.67538319  0.11934066  0.91452898    -0.22800
C2259       C  0.69681576  0.13386312  0.89394569     0.20200
C2260       C  0.69722139  0.13379083  0.85360294     0.25300
C2261       C  0.67633681  0.11900951  0.83259434    -0.22700
C2262       C  0.66227351  0.09746432  0.85335300     0.20200
F2263       F  0.65289142  0.07391193  0.83528168    -0.12700
F2264       F  0.65108006  0.07466420  0.91190642    -0.15100
F2265       F  0.72052703  0.14439093  0.83575655    -0.15100
F2266       F  0.71992683  0.14420844  0.91230507    -0.12700
C2267       C  0.70080959  0.11824509  0.60282082     0.25300
C2268       C  0.67499259  0.11980659  0.58240613    -0.22800
C2269       C  0.65063592  0.12729202  0.60377582     0.20200
C2270       C  0.65109394  0.12802713  0.64392778     0.25300
C2271       C  0.67580735  0.12107670  0.66455849    -0.22700
C2272       C  0.70122849  0.11903774  0.64319884     0.23000
F2273       F  0.72674087  0.11955493  0.66110305    -0.12700
F2274       F  0.72594214  0.11762460  0.58379330    -0.15100
F2275       F  0.62762939  0.13760355  0.66230791    -0.15100
F2276       F  0.62668035  0.13619571  0.58613395    -0.12700
C2277       C  0.63093503  0.34115330  0.85221464     0.25300
C2278       C  0.61603181  0.36208978  0.83160591    -0.22800
C2279       C  0.59408133  0.37538574  0.85239730     0.20200
C2280       C  0.59365233  0.37481328  0.89269767     0.25300
C2281       C  0.61533334  0.36121854  0.91349876    -0.22700
C2282       C  0.63058745  0.34072772  0.89259335     0.20200
F2283       F  0.64187609  0.31805464  0.91066898    -0.12700
F2284       F  0.64253457  0.31883190  0.83371432    -0.15100
F2285       F  0.56983938  0.38380978  0.91073185    -0.15100
F2286       F  0.57087223  0.38542940  0.83410791    -0.12700
C2287       C  0.64066000  0.37604786  0.60230661     0.25300
C2288       C  0.61693640  0.36624417  0.58144830    -0.22800
C2289       C  0.59152450  0.36246953  0.60242676     0.20200
C2290       C  0.59147717  0.36270030  0.64279584     0.25300
C2291       C  0.61693030  0.36613689  0.66360592    -0.22700
C2292       C  0.64074318  0.37577145  0.64259460     0.20200
F2293       F  0.66357687  0.38690668  0.66080712    -0.12700
F2294       F  0.66311877  0.38805148  0.58404991    -0.15100
F2295       F  0.56614789  0.36140024  0.66127456    -0.15100
F2296       F  0.56630604  0.36019514  0.58401912    -0.12700
C2297       C  0.76495937  0.00137368  0.72578234     0.25300
C2298       C  0.78929954  0.00462145  0.74847074    -0.22800
C2299       C  0.79219284  0.02847665  0.77200121     0.20200
C2300       C  0.77103359  0.04890678  0.77275167     0.25300
C2301       C  0.74665062  0.04564357  0.75014654    -0.22700
C2302       C  0.74372479  0.02174465  0.72666722     0.20200
F2303       F  0.72001368  0.01788706  0.70527866    -0.12700
F2304       F  0.76143531  0.47807444  0.70367071    -0.15100
F2305       F  0.77480359  0.07241126  0.79438613    -0.15100
F2306       F  0.81594115  0.03235723  0.79330819    -0.12700
C2307       C  0.79268665  0.03095290  0.97629744     0.25300
C2308       C  0.78896040  0.00512122  0.99539573    -0.22800
C2309       C  0.76294464  0.49883722  0.01308900     0.20200
C2310       C  0.74098161  0.01845230  0.01238972     0.25300
C2311       C  0.74483898  0.04450634  0.99394407    -0.22700
C2312       C  0.77071016  0.05059673  0.97559678     0.20200
F2313       F  0.77493422  0.07595288  0.95829687    -0.12700
F2314       F  0.81788812  0.03737393  0.95943890    -0.15100
F2315       F  0.71574884  0.01193714  0.02905642    -0.15100
F2316       F  0.75873190  0.47341648  0.53019710    -0.12700
C2317       C  0.83901972  0.41990608  0.89328880     0.25300
C2318       C  0.86074883  0.43379803  0.91384113    -0.22800
C2319       C  0.87596482  0.45450727  0.89297782     0.20200
C2320       C  0.87570293  0.45464348  0.85262467     0.25300
C2321       C  0.86049619  0.43388236  0.83205141    -0.22700
C2322       C  0.83890018  0.41993853  0.85297335     0.20200
F2323       F  0.81586871  0.40918970  0.83480545    -0.12700
F2324       F  0.81609682  0.40910162  0.91186573    -0.15100
F2325       F  0.88746771  0.47702173  0.83411039    -0.15100
F2326       F  0.88838336  0.47653883  0.91129843    -0.12700
C2327       C  0.87457399  0.45480144  0.60276510     0.25300
C2328       C  0.85957355  0.43403487  0.58193223    -0.22800
C2329       C  0.83865558  0.41919047  0.60303001     0.20200
C2330       C  0.83918275  0.41863294  0.64340140     0.25300
C2331       C  0.86042724  0.43321075  0.66403254    -0.22700
C2332       C  0.87491674  0.45445797  0.64315655     0.20200
F2333       F  0.88672322  0.47678241  0.66154314    -0.12700
F2334       F  0.88633002  0.47726576  0.58444479    -0.15100
F2335       F  0.81687443  0.40667182  0.66201105    -0.15100
F2336       F  0.81563493  0.40819203  0.58514955    -0.12700
C2337       C  0.53140447  0.24135638  0.72576405     0.25300
C2338       C  0.00668771  0.24415728  0.74793138    -0.22800
C2339       C  0.00286750  0.26843778  0.77044340     0.20200
C2340       C  0.52353756  0.28959445  0.77087036     0.25300
C2341       C  0.54837313  0.28671698  0.74889301    -0.22700
C2342       C  0.55219512  0.26244656  0.72639590     0.20200
F2343       F  0.57638711  0.25894842  0.70579357    -0.12700
F2344       F  0.53564354  0.21787534  0.70430376    -0.15100
F2345       F  0.51888255  0.31336306  0.79161730    -0.15100
F2346       F  0.97863874  0.27203362  0.79096804    -0.12700
C2347       C  0.52732668  0.28522914  0.97399715     0.25300
C2348       C  0.55105975  0.28334302  0.99820815    -0.22800
C2349       C  0.55363733  0.25992093  0.52279830     0.20200
C2350       C  0.53285432  0.23871010  0.52300320     0.25300
C2351       C  0.50924402  0.24062491  0.99860956    -0.22700
C2352       C  0.00659276  0.26416183  0.97433061     0.20200
F2353       F  0.98328610  0.26729233  0.95196439    -0.12700
F2354       F  0.52364356  0.30806021  0.95100426    -0.15100
F2355       F  0.53605455  0.21599751  0.54633741    -0.15100
F2356       F  0.57660944  0.25727704  0.54588230    -0.12700
C2357       C  0.91809371  0.15141427  0.89301440     0.25300
C2358       C  0.92765259  0.17508436  0.91407348    -0.22800
C2359       C  0.93128934  0.20046546  0.89333086     0.20200
C2360       C  0.93087960  0.20068137  0.85295912     0.25300
C2361       C  0.92735246  0.17542667  0.83195375    -0.22700
C2362       C  0.91802322  0.15157678  0.85281344     0.20200
F2363       F  0.90663242  0.12894761  0.83459791    -0.12700
F2364       F  0.90649242  0.12869809  0.91093903    -0.15100
F2365       F  0.93218359  0.22594656  0.83468576    -0.15100
F2366       F  0.93361678  0.22545718  0.91202257    -0.12700
C2367       C  0.91780583  0.19782808  0.64312034     0.25300
C2368       C  0.93122342  0.17612658  0.66398479    -0.22800
C2369       C  0.95157716  0.16060213  0.64305502     0.20200
C2370       C  0.95119468  0.16023448  0.60267675     0.25300
C2371       C  0.93063047  0.17561178  0.58198533    -0.22700
C2372       C  0.91748423  0.19757500  0.60279903     0.20200
F2373       F  0.90804567  0.22100641  0.58460039    -0.12700
F2374       F  0.90858389  0.22140242  0.66119309    -0.15100
F2375       F  0.97323282  0.14790764  0.58417957    -0.15100
F2376       F  0.97416328  0.14898027  0.66106227    -0.12700
C2377       C  0.92924909  0.67451848  0.45834317     0.31700
C2378       C  0.92884540  0.67401025  0.03764106     0.31700
C2379       C  0.93282820  0.64539811  0.47754030    -0.04500
C2380       C  0.95297312  0.69129371  0.47803477    -0.05300
C2381       C  0.90260411  0.68619725  0.47775404    -0.05100
C2382       C  0.93167046  0.64468952  0.01793382    -0.04500
C2383       C  0.95254299  0.69127033  0.01805603    -0.05200
C2384       C  0.90176073  0.68533874  0.01778819    -0.05100
C2385       C  0.94270529  0.61880018  0.02889171    -0.30500
N2386       N  0.95277035  0.60540249  0.99733607     0.16000
C2387       C  0.94782484  0.62185000  0.46637756    -0.30500
H2388       H  0.95650749  0.61802562  0.43806252     0.17900
C2389       C  0.97420210  0.70868834  0.03012190    -0.29500
N2390       N  0.98773900  0.71906981  0.49863575     0.14700
C2391       C  0.97528336  0.70817847  0.46680353    -0.29500
C2392       C  0.87581909  0.69661265  0.02833196    -0.29800
N2393       N  0.86246652  0.70612212  0.99637461     0.15200
H2394       H  0.86757201  0.69895867  0.05715183     0.17800
C2395       C  0.87858147  0.69981485  0.46530883    -0.29800
H2396       H  0.87355783  0.70544644  0.43599980     0.17800
H2397       H  0.98172464  0.71281808  0.43762796     0.17800
H2398       H  0.94583936  0.61130136  0.05787800     0.17900
H2399       H  0.97895365  0.71438130  0.05950045     0.17800
C2400       C  0.92936208  0.67464469  0.20833815     0.31700
C2401       C  0.92900087  0.67493688  0.28770111     0.31700
C2402       C  0.93401144  0.64561502  0.22819378    -0.04500
C2403       C  0.95160141  0.69340270  0.22804787    -0.05300
C2404       C  0.90147846  0.68427295  0.22793162    -0.05100
C2405       C  0.93489908  0.64623690  0.26849872    -0.04500
C2406       C  0.95161668  0.69342303  0.26809272    -0.05200
C2407       C  0.90158032  0.68448287  0.26805023    -0.05100
C2408       C  0.94975502  0.62264627  0.27986969    -0.30500
N2409       N  0.95498780  0.60636007  0.24878835     0.16000
C2410       C  0.94496075  0.61974578  0.21723649    -0.30500
H2411       H  0.94781926  0.61207438  0.18829995     0.17900
C2412       C  0.97318047  0.71113132  0.27946171    -0.29500
N2413       N  0.98541742  0.72248529  0.24771483     0.14700
C2414       C  0.97266281  0.71161996  0.21611127    -0.29500
C2415       C  0.87651761  0.69647854  0.28018377    -0.29800
N2416       N  0.86114991  0.70348388  0.24876955     0.15200
H2417       H  0.87088956  0.70172261  0.30947298     0.17800
C2418       C  0.87576355  0.69562872  0.21693983    -0.29800
H2419       H  0.86832916  0.69899672  0.18797995     0.17800
H2420       H  0.97779652  0.71719780  0.18674475     0.17800
H2421       H  0.95782434  0.61849986  0.30839380     0.17900
H2422       H  0.97960436  0.71569074  0.30859497     0.17800
C2423       C  0.86226012  0.93213167  0.45805258     0.31700
C2424       C  0.86137540  0.93236056  0.03753245     0.31700
C2425       C  0.89099359  0.93796520  0.47790086    -0.04500
C2426       C  0.84270460  0.95345120  0.47739214    -0.05300
C2427       C  0.85369925  0.90400971  0.47764473    -0.05100
C2428       C  0.89049458  0.93824979  0.01821853    -0.04500
C2429       C  0.84209219  0.95347024  0.01730232    -0.05200
C2430       C  0.85314891  0.90418183  0.01792461    -0.05100
C2431       C  0.91722921  0.94639106  0.02990259    -0.30500
N2432       N  0.93350955  0.95154178  0.49848104     0.16000
C2433       C  0.91815378  0.94546237  0.46669766    -0.30500
H2434       H  0.92573054  0.94852567  0.43765422     0.17900
C2435       C  0.82235810  0.97308314  0.02843128    -0.29500
N2436       N  0.81140271  0.98501251  0.49632241     0.14700
C2437       C  0.82369785  0.97331068  0.46500689    -0.29500
C2438       C  0.84414957  0.87771981  0.02935039    -0.29800
N2439       N  0.83863503  0.86197657  0.49778652     0.15200
H2440       H  0.84105925  0.87029605  0.05841487     0.17800
C2441       C  0.84533254  0.87731523  0.46615322    -0.29800
H2442       H  0.84277025  0.86988582  0.43702302     0.17800
H2443       H  0.81846687  0.97826908  0.43552220     0.17800
H2444       H  0.92418719  0.94995850  0.05903524     0.17900
H2445       H  0.81608521  0.97805957  0.05756238     0.17800
C2446       C  0.86221239  0.93149127  0.20837959     0.31700
C2447       C  0.86225851  0.93188569  0.28784034     0.31700
C2448       C  0.89094652  0.93836888  0.22780435    -0.04500
C2449       C  0.84210970  0.95214578  0.22809590    -0.05300
C2450       C  0.85471413  0.90311312  0.22831828    -0.05100
C2451       C  0.89107819  0.93838622  0.26810877    -0.04500
C2452       C  0.84226731  0.95238766  0.26796198    -0.05200
C2453       C  0.85443127  0.90346199  0.26862702    -0.05100
C2454       C  0.91809544  0.94641274  0.27931577    -0.30500
N2455       N  0.93366955  0.95236877  0.24751027     0.16000
C2456       C  0.91766971  0.94676807  0.21611844    -0.30500
H2457       H  0.92485870  0.94996560  0.18694481     0.17900
C2458       C  0.82282781  0.97197428  0.27977232    -0.29500
N2459       N  0.81087215  0.98353063  0.24812973     0.14700
C2460       C  0.82242608  0.97159246  0.21637228    -0.29500
C2461       C  0.84530326  0.87713061  0.28049988    -0.29800
N2462       N  0.83985818  0.86109141  0.24916504     0.15200
H2463       H  0.84184603  0.87014879  0.30970815     0.17800
C2464       C  0.84646469  0.87625536  0.21729834    -0.29800
H2465       H  0.84375663  0.86862386  0.18830100     0.17800
H2466       H  0.81698691  0.97679664  0.18703898     0.17800
H2467       H  0.92549535  0.94965258  0.30833854     0.17900
H2468       H  0.81739513  0.97713580  0.30915019     0.17800
O2469       O  0.97865359  0.96428875  0.47550594    -0.76800
C2470       C  0.52143709  0.51775002  0.39294021     0.84300
O2471       O  0.57677894  0.97648395  0.01918296    -0.77900
O2472       O  0.56313837  0.57456927  0.47463733    -0.79400
O2473       O  0.96624833  0.56112558  0.02072410    -0.79200
O2474       O  0.95861877  0.99028706  0.02120979    -0.77800
Zn2475     Zn  0.51668597  0.98399964  0.46594660     1.55700
O2476       O  0.49196291  0.58082747  0.47414314    -0.79200
Cd2477     Cd  0.98686672  0.52293806  0.02901184     1.59700
Cd2478     Cd  0.55650110  0.51477110  0.02769659     1.59600
O2479       O  0.99850617  0.52184415  0.08469899    -0.79200
O2480       O  0.52127527  0.51812877  0.49649495    -1.89700
Cd2481     Cd  0.52519627  0.55311834  0.46540670     1.59900
O2482       O  0.54554080  0.51605384  0.08392868    -0.79100
O2483       O  0.52434601  0.54136739  0.40971519    -0.77800
C2484       C  0.57050940  0.95593989  0.49721340     0.84700
C2485       C  0.95825656  0.96918319  0.49865597     0.84400
O2486       O  0.51827397  0.99454755  0.41082443    -0.76700
C2487       C  0.97104208  0.58129304  0.99737088     0.85200
O2488       O  0.54870832  0.95647561  0.47563547    -0.76800
C2489       C  0.52214457  0.51901057  0.10155881     0.85300
C2490       C  0.58380840  0.56989514  0.49722861     0.85700
O2491       O  0.58433148  0.54825882  0.01900940    -0.79300
O2492       O  0.55004221  0.95679096  0.26880003    -0.76800
C2493       C  0.52175207  0.51771458  0.35155093     0.84300
O2494       O  0.95888241  0.99123837  0.22486422    -0.77900
O2495       O  0.49428213  0.58151939  0.27090095    -0.79400
O2496       O  0.58550517  0.54802765  0.22484726    -0.79200
O2497       O  0.57769775  0.97695301  0.22456115    -0.77800
Zn2498     Zn  0.51758631  0.98398063  0.27846631     1.55700
O2499       O  0.56518985  0.57319437  0.27119369    -0.79200
Cd2500     Cd  0.55726229  0.51498868  0.21595972     1.59700
Cd2501     Cd  0.98765798  0.52346895  0.21629696     1.59600
O2502       O  0.54593881  0.51621826  0.15989828    -0.79200
O2503       O  0.52226969  0.51818320  0.24795665    -1.89700
Cd2504     Cd  0.52668435  0.55290851  0.27926809     1.59900
O2505       O  0.99890238  0.52218230  0.16029487    -0.79100
O2506       O  0.52495609  0.54129583  0.33477217    -0.77800
C2507       C  0.95859236  0.96983079  0.24699054     0.84700
C2508       C  0.57183837  0.95651133  0.24699839     0.84400
O2509       O  0.51880341  0.99452328  0.33366251    -0.76700
C2510       C  0.58560065  0.56882936  0.24800965     0.85200
O2511       O  0.97932636  0.96437181  0.26924164    -0.76800
C2512       C  0.52236281  0.51915151  0.14285023     0.85300
C2513       C  0.97302854  0.58209510  0.24843519     0.85700
O2514       O  0.96770412  0.56190935  0.22542222    -0.79300
C2515       C  0.61712492  0.86325315  0.45780374     0.31700
C2516       C  0.61742687  0.86426976  0.03717055     0.31700
C2517       C  0.60668514  0.89079076  0.47706067    -0.04500
C2518       C  0.59930921  0.84068885  0.47821922    -0.05300
C2519       C  0.64655619  0.85957606  0.47709879    -0.05100
C2520       C  0.60669411  0.89098859  0.01715185    -0.04500
C2521       C  0.59956457  0.84077684  0.01823591    -0.05200
C2522       C  0.64645750  0.85961052  0.01753991    -0.05100
C2523       C  0.59498713  0.91613406  0.02897759    -0.30500
N2524       N  0.58786615  0.93121078  0.49735619     0.16000
C2525       C  0.59547162  0.91640461  0.46571184    -0.30500
H2526       H  0.59245553  0.92386233  0.43667102     0.17900
C2527       C  0.58285477  0.81833194  0.02990816    -0.29500
N2528       N  0.57196324  0.80552133  0.49828083     0.14700
C2529       C  0.58213385  0.81890033  0.46661691    -0.29500
C2530       C  0.67083022  0.84592468  0.02899566    -0.29800
N2531       N  0.68635547  0.83928172  0.49761435     0.15200
H2532       H  0.67555553  0.83869993  0.05778333     0.17800
C2533       C  0.67202185  0.84759733  0.46595469    -0.29800
H2534       H  0.67918691  0.84360190  0.43701952     0.17800
H2535       H  0.57724272  0.81328131  0.43725696     0.17800
H2536       H  0.59040837  0.92224835  0.05827116     0.17900
H2537       H  0.57828989  0.81213097  0.05918825     0.17800
C2538       C  0.61746533  0.86444578  0.20789105     0.31700
C2539       C  0.61774539  0.86416589  0.28730720     0.31700
C2540       C  0.60872304  0.89200799  0.22765602    -0.04500
C2541       C  0.59824840  0.84247442  0.22763246    -0.05300
C2542       C  0.64610315  0.85776128  0.22704162    -0.05100
C2543       C  0.60894042  0.89214156  0.26781458    -0.04500
C2544       C  0.59818987  0.84274009  0.26765830    -0.05200
C2545       C  0.64669939  0.85856094  0.26733383    -0.05100
C2546       C  0.59763838  0.91773422  0.27892498    -0.30500
N2547       N  0.58974445  0.93220697  0.24711942     0.16000
C2548       C  0.59675339  0.91694633  0.21563943    -0.30500
H2549       H  0.59139142  0.92252802  0.18639262     0.17900
C2550       C  0.57985689  0.82198806  0.27989984    -0.29500
N2551       N  0.56923222  0.80878552  0.24854274     0.14700
C2552       C  0.58068171  0.82068840  0.21658743    -0.29500
C2553       C  0.67275530  0.84789309  0.27819459    -0.29800
N2554       N  0.68639629  0.83827177  0.24651689     0.15200
H2555       H  0.68044063  0.84506190  0.30716327     0.17800
C2556       C  0.67007202  0.84350412  0.21540424    -0.29800
H2557       H  0.67453443  0.83596762  0.18671669     0.17800
H2558       H  0.57625374  0.81398449  0.18753835     0.17800
H2559       H  0.59423263  0.92512567  0.30790589     0.17900
H2560       H  0.57479405  0.81667318  0.30937979     0.17800
C2561       C  0.67435967  0.61877312  0.03810937     0.31700
C2562       C  0.67360444  0.62055986  0.45886302     0.31700
C2563       C  0.68365777  0.64668666  0.01942607    -0.04500
C2564       C  0.69316464  0.59726357  0.01751655    -0.05300
C2565       C  0.64546640  0.61256466  0.01896566    -0.05100
C2566       C  0.68257121  0.64811018  0.47941500    -0.04500
C2567       C  0.69306824  0.59857402  0.47752731    -0.05200
C2568       C  0.64459980  0.61452872  0.47865411    -0.05100
C2569       C  0.69371171  0.67413491  0.46926289    -0.30500
N2570       N  0.70377988  0.68697296  0.50124607     0.16000
C2571       C  0.69771470  0.67046123  0.03205059    -0.30500
H2572       H  0.70457247  0.67462399  0.06111833     0.17900
C2573       C  0.71193750  0.57878783  0.46437870    -0.29500
N2574       N  0.72292777  0.56522051  0.49516277     0.14700
C2575       C  0.71136183  0.57593560  0.02768404    -0.29500
C2576       C  0.61959456  0.60158685  0.46723471    -0.29800
N2577       N  0.60715678  0.58939879  0.49822489     0.15200
H2578       H  0.61217055  0.59883805  0.43813978     0.17800
C2579       C  0.62322717  0.59504628  0.02942968    -0.29800
H2580       H  0.62000870  0.58557530  0.05741047     0.17800
H2581       H  0.71647611  0.56907306  0.05647867     0.17800
H2582       H  0.69632942  0.68246692  0.44055275     0.17900
H2583       H  0.71747933  0.57466534  0.43473525     0.17800
C2584       C  0.67486494  0.62055641  0.28821684     0.31700
C2585       C  0.67553667  0.62004817  0.20883031     0.31700
C2586       C  0.68217033  0.64885478  0.26814602    -0.04500
C2587       C  0.69564473  0.60016439  0.26887964    -0.05300
C2588       C  0.64634477  0.61292707  0.26835933    -0.05100
C2589       C  0.68267918  0.64831132  0.22795793    -0.04500
C2590       C  0.69577521  0.59962212  0.22885208    -0.05200
C2591       C  0.64732097  0.61162234  0.22809842    -0.05100
C2592       C  0.69548747  0.67287751  0.21557284    -0.30500
N2593       N  0.70234951  0.68845344  0.24679727     0.16000
C2594       C  0.69365869  0.67450920  0.27875414    -0.30500
H2595       H  0.69721116  0.68210489  0.30757341     0.17900
C2596       C  0.71390964  0.57853182  0.21788398    -0.29500
N2597       N  0.72545371  0.56712229  0.24988232     0.14700
C2598       C  0.71440025  0.58003787  0.28123566    -0.29500
C2599       C  0.62533629  0.59426097  0.21686227    -0.29800
N2600       N  0.60929878  0.58782728  0.24790327     0.15200
H2601       H  0.62203329  0.58572125  0.18842280     0.17800
C2602       C  0.62142085  0.59955568  0.27933587    -0.29800
H2603       H  0.61358972  0.59655111  0.30826510     0.17800
H2604       H  0.71927911  0.57479394  0.31071002     0.17800
H2605       H  0.70209710  0.67760745  0.18647010     0.17900
H2606       H  0.71850990  0.57183752  0.18883059     0.17800
O2607       O  0.75015391  0.76756272  0.41205770    -0.76800
C2608       C  0.72300494  0.71049087  0.50104787     0.84300
O2609       O  0.73040222  0.82612756  0.02202303    -0.77900
O2610       O  0.77961579  0.74833561  0.08547477    -0.79400
O2611       O  0.83780346  0.74577771  0.47521557    -0.79200
O2612       O  0.79704336  0.77508110  0.41023549    -0.77800
Zn2613     Zn  0.73912697  0.76796840  0.46701073     1.55700
O2614       O  0.81687372  0.71734274  0.01781248    -0.79200
Cd2615     Cd  0.80841350  0.77759699  0.46613996     1.59700
Cd2616     Cd  0.76889302  0.80622868  0.03020091     1.59600
O2617       O  0.82734482  0.81700283  0.47421709    -0.79200
O2618       O  0.77331430  0.77216051  0.49754552    -1.89700
Cd2619     Cd  0.77861132  0.73740349  0.02906474     1.59900
O2620       O  0.80104869  0.83512430  0.02124324    -0.79100
O2621       O  0.74481971  0.70970310  0.02255782    -0.77800
C2622       C  0.71074282  0.82136696  0.49790285     0.84700
C2623       C  0.77336922  0.77084137  0.39398511     0.84400
O2624       O  0.71846136  0.73115677  0.47843800    -0.76700
C2625       C  0.83781503  0.72371694  0.99622247     0.85200
O2626       O  0.71188278  0.80061214  0.47471644    -0.76800
C2627       C  0.82183761  0.83672289  0.99791465     0.85300
C2628       C  0.77570084  0.77150120  0.10288266     0.85700
O2629       O  0.77086947  0.79472342  0.08606876    -0.79300
O2630       O  0.71884690  0.73191909  0.22397444    -0.76800
C2631       C  0.71115442  0.82084141  0.24684781     0.84300
O2632       O  0.79974862  0.77434954  0.16081504    -0.77900
O2633       O  0.80146903  0.83477211  0.27164896    -0.79400
O2634       O  0.77585219  0.74727274  0.33565576    -0.79200
O2635       O  0.74329073  0.71009012  0.26972772    -0.77800
Zn2636     Zn  0.74037997  0.76841039  0.21534143     1.55700
O2637       O  0.77015584  0.79414705  0.33593579    -0.79200
Cd2638     Cd  0.77733824  0.73674679  0.27901751     1.59700
Cd2639     Cd  0.80967146  0.77652472  0.21752883     1.59600
O2640       O  0.81560441  0.71577538  0.26974257    -0.79200
O2641       O  0.77379013  0.77174077  0.24750107    -1.89700
Cd2642     Cd  0.76908822  0.80583607  0.28006232     1.59900
O2643       O  0.83782213  0.74389079  0.22788120    -0.79100
O2644       O  0.73048635  0.82552454  0.27148362    -0.77800
C2645       C  0.77610295  0.77148815  0.14390102     0.84700
C2646       C  0.72226281  0.71128315  0.24689275     0.84400
O2647       O  0.71293772  0.80053217  0.22307844    -0.76700
C2648       C  0.77289413  0.77064572  0.35293379     0.85200
O2649       O  0.75256396  0.76914650  0.16132675    -0.76800
C2650       C  0.83699886  0.72175137  0.24871862     0.85300
C2651       C  0.82297384  0.83585004  0.24943959     0.85700
O2652       O  0.82906164  0.81566686  0.22670567    -0.79300
C2653       C  0.66161083  0.59774261  0.39366881     0.25300
C2654       C  0.67538245  0.61934060  0.41452892    -0.22800
C2655       C  0.69681512  0.63386288  0.39394559     0.20200
C2656       C  0.69722062  0.63379075  0.35360285     0.25300
C2657       C  0.67633589  0.61900967  0.33259422    -0.22700
C2658       C  0.66227233  0.59746462  0.35335286     0.20200
F2659       F  0.65288997  0.57391236  0.33528152    -0.12700
F2660       F  0.65107866  0.57466449  0.41190616    -0.15100
F2661       F  0.72052626  0.64439083  0.33575642    -0.15100
F2662       F  0.71992635  0.64420787  0.41230494    -0.12700
C2663       C  0.70080953  0.61824475  0.10282105     0.25300
C2664       C  0.67499264  0.61980659  0.08240616    -0.22800
C2665       C  0.65063597  0.62729235  0.10377560     0.20200
C2666       C  0.65109380  0.62802741  0.14392755     0.25300
C2667       C  0.67580703  0.62107667  0.16455844    -0.22700
C2668       C  0.70122826  0.61903745  0.14319903     0.23000
F2669       F  0.72674057  0.61955450  0.16110342    -0.12700
F2670       F  0.72594218  0.61762394  0.08379377    -0.15100
F2671       F  0.62762927  0.63760405  0.16230753    -0.15100
F2672       F  0.62668063  0.63619636  0.08613346    -0.12700
C2673       C  0.63093488  0.84115236  0.35221470     0.25300
C2674       C  0.61603165  0.86208872  0.33160578    -0.22800
C2675       C  0.59408107  0.87538462  0.35239704     0.20200
C2676       C  0.59365211  0.87481248  0.39269744     0.25300
C2677       C  0.61533316  0.86121795  0.41349868    -0.22700
C2678       C  0.63058722  0.84072696  0.39259346     0.20200
F2679       F  0.64187575  0.81805391  0.41066932    -0.12700
F2680       F  0.64253456  0.81883096  0.33371453    -0.15100
F2681       F  0.56983910  0.88380891  0.41073152    -0.15100
F2682       F  0.57087176  0.88542775  0.33410760    -0.12700
C2683       C  0.64065948  0.87604785  0.10230616     0.25300
C2684       C  0.61693594  0.86624362  0.08144819    -0.22800
C2685       C  0.59152427  0.86246856  0.10242700     0.20200
C2686       C  0.59147727  0.86269938  0.14279605     0.25300
C2687       C  0.61693053  0.86613630  0.16360577    -0.22700
C2688       C  0.64074312  0.87577119  0.14259415     0.20200
F2689       F  0.66357688  0.88690654  0.16080636    -0.12700
F2690       F  0.66311774  0.88805213  0.08404909    -0.15100
F2691       F  0.56614815  0.86139897  0.16127514    -0.15100
F2692       F  0.56630566  0.86019397  0.08401979    -0.12700
C2693       C  0.76495920  0.50137404  0.22578159     0.25300
C2694       C  0.78929911  0.50462146  0.24847060    -0.22800
C2695       C  0.79219206  0.52847632  0.27200182     0.20200
C2696       C  0.77103274  0.54890641  0.27275247     0.25300
C2697       C  0.74665002  0.54564353  0.25014671    -0.22700
C2698       C  0.74372457  0.52174497  0.22666660     0.20200
F2699       F  0.72001376  0.51788767  0.20527733    -0.12700
F2700       F  0.76143516  0.97807497  0.20366958    -0.15100
F2701       F  0.77480245  0.57241053  0.29438772    -0.15100
F2702       F  0.81594012  0.53235664  0.29330941    -0.12700
C2703       C  0.79268632  0.53095246  0.47629796     0.25300
C2704       C  0.78895926  0.50512024  0.49539458    -0.22800
C2705       C  0.76294301  0.99883613  0.51308599     0.20200
C2706       C  0.74098021  0.51845139  0.51238710     0.25300
C2707       C  0.74483845  0.54450606  0.49394344    -0.22700
C2708       C  0.77071014  0.55059667  0.47559761     0.20200
F2709       F  0.77493493  0.57595333  0.45829938    -0.12700
F2710       F  0.81788826  0.53737363  0.45944082    -0.15100
F2711       F  0.71574688  0.51193600  0.52905208    -0.15100
F2712       F  0.75873432  0.97341828  0.03020175    -0.12700
C2713       C  0.83901974  0.91990458  0.39328890     0.25300
C2714       C  0.86074847  0.93379716  0.41384122    -0.22800
C2715       C  0.87596381  0.95450687  0.39297788     0.20200
C2716       C  0.87570165  0.95464329  0.35262470     0.25300
C2717       C  0.86049542  0.93388184  0.33205139    -0.22700
C2718       C  0.83889999  0.91993721  0.35297344     0.20200
F2719       F  0.81586869  0.90918788  0.33480571    -0.12700
F2720       F  0.81609718  0.90909943  0.41186584    -0.15100
F2721       F  0.88746574  0.97702191  0.33411045    -0.15100
F2722       F  0.88838203  0.97653858  0.41129854    -0.12700
C2723       C  0.87457446  0.95480117  0.10276495     0.25300
C2724       C  0.85957404  0.93403464  0.08193198    -0.22800
C2725       C  0.83865596  0.91919027  0.10302964     0.20200
C2726       C  0.83918287  0.91863287  0.14340104     0.25300
C2727       C  0.86042724  0.93321070  0.16403237    -0.22700
C2728       C  0.87491700  0.95445778  0.14315641     0.20200
F2729       F  0.88672357  0.97678217  0.16154298    -0.12700
F2730       F  0.88633066  0.97726540  0.08444465    -0.15100
F2731       F  0.81687443  0.90667182  0.16201053    -0.15100
F2732       F  0.81563539  0.90819177  0.08514904    -0.12700
C2733       C  0.53140424  0.74135566  0.22576219     0.25300
C2734       C  0.00668687  0.74415796  0.24792804    -0.22800
C2735       C  0.00286658  0.76843912  0.27043868     0.20200
C2736       C  0.52353749  0.78959493  0.27086618     0.25300
C2737       C  0.54837382  0.78671597  0.24889085    -0.22700
C2738       C  0.55219563  0.76244511  0.22639459     0.20200
F2739       F  0.57638816  0.75894584  0.20579376    -0.12700
F2740       F  0.53564316  0.71787402  0.20430306    -0.15100
F2741       F  0.51888262  0.81336419  0.29161180    -0.15100
F2742       F  0.97863723  0.77203611  0.29096165    -0.12700
C2743       C  0.52732181  0.78523553  0.47400917     0.25300
C2744       C  0.55105966  0.78334415  0.49821058    -0.22800
C2745       C  0.55363293  0.75992405  0.02280455     0.20200
C2746       C  0.53285007  0.73871307  0.02300966     0.25300
C2747       C  0.50924384  0.74062676  0.49861187    -0.22700
C2748       C  0.00658822  0.76416796  0.47434191     0.20200
F2749       F  0.98327733  0.76730227  0.45198477    -0.12700
F2750       F  0.52363503  0.80807116  0.45102577    -0.15100
F2751       F  0.53604634  0.71600502  0.04635310    -0.15100
F2752       F  0.57660067  0.75728419  0.04589737    -0.12700
C2753       C  0.91809449  0.65141556  0.39301475     0.25300
C2754       C  0.92765348  0.67508572  0.41407359    -0.22800
C2755       C  0.93129010  0.70046672  0.39333068     0.20200
C2756       C  0.93088045  0.70068235  0.35295889     0.25300
C2757       C  0.92735337  0.67542749  0.33195380    -0.22700
C2758       C  0.91802406  0.65157779  0.35281381     0.20200
F2759       F  0.90663326  0.62894851  0.33459853    -0.12700
F2760       F  0.90649298  0.62869959  0.41093961    -0.15100
F2761       F  0.93218416  0.72594745  0.33468527    -0.15100
F2762       F  0.93361707  0.72545858  0.41202212    -0.12700
C2763       C  0.91780461  0.69782688  0.14312034     0.25300
C2764       C  0.93122244  0.67612550  0.16398473    -0.22800
C2765       C  0.95157627  0.66060118  0.14305490     0.20200
C2766       C  0.95119394  0.66023376  0.10267663     0.25300
C2767       C  0.93062970  0.67561101  0.08198521    -0.22700
C2768       C  0.91748318  0.69757400  0.10279904     0.20200
F2769       F  0.90804470  0.72100553  0.08460063    -0.12700
F2770       F  0.90858221  0.72140099  0.16119319    -0.15100
F2771       F  0.97323225  0.64790720  0.08417946    -0.15100
F2772       F  0.97416237  0.64897926  0.16106210    -0.12700
C2773       C  0.92924819  0.67451697  0.95834303     0.31700
C2774       C  0.92884624  0.67401117  0.53764125     0.31700
C2775       C  0.93282673  0.64539667  0.97754036    -0.04500
C2776       C  0.95297261  0.69129172  0.97803436    -0.05300
C2777       C  0.90260346  0.68619645  0.97775380    -0.05100
C2778       C  0.93167186  0.64469070  0.51793367    -0.04500
C2779       C  0.95254362  0.69127166  0.51805652    -0.05200
C2780       C  0.90176138  0.68533936  0.51778845    -0.05100
C2781       C  0.94270593  0.61880102  0.52889134    -0.30500
N2782       N  0.95277067  0.60540326  0.49733557     0.16000
C2783       C  0.94782405  0.62184890  0.96637793    -0.30500
H2784       H  0.95650693  0.61802467  0.93806298     0.17900
C2785       C  0.97420296  0.70868914  0.53012297    -0.29500
N2786       N  0.98773852  0.71906831  0.99863439     0.14700
C2787       C  0.97528318  0.70817577  0.96680263    -0.29500
C2788       C  0.87581958  0.69661290  0.52833235    -0.29800
N2789       N  0.86246682  0.70612216  0.49637498     0.15200
H2790       H  0.86757263  0.69895889  0.55715214     0.17800
C2791       C  0.87858107  0.69981446  0.96530847    -0.29800
H2792       H  0.87355749  0.70544598  0.93599947     0.17800
H2793       H  0.98172481  0.71281394  0.93762680     0.17800
H2794       H  0.94583975  0.61130196  0.55787763     0.17900
H2795       H  0.97895512  0.71438120  0.55950168     0.17800
C2796       C  0.92936264  0.67464527  0.70833821     0.31700
C2797       C  0.92900037  0.67493637  0.78770114     0.31700
C2798       C  0.93401084  0.64561512  0.72819325    -0.04500
C2799       C  0.95160228  0.69340236  0.72804894    -0.05300
C2800       C  0.90147905  0.68427414  0.72793126    -0.05100
C2801       C  0.93489791  0.64623647  0.76849830    -0.04500
C2802       C  0.95161704  0.69342208  0.76809378    -0.05200
C2803       C  0.90158039  0.68448345  0.76804986    -0.05100
C2804       C  0.94975428  0.62264603  0.77986903    -0.30500
N2805       N  0.95498775  0.60636030  0.74878750     0.16000
C2806       C  0.94496092  0.61974623  0.71723568    -0.30500
H2807       H  0.94782010  0.61207526  0.68829908     0.17900
C2808       C  0.97318088  0.71112997  0.77946383    -0.29500
N2809       N  0.98541830  0.72248443  0.74771755     0.14700
C2810       C  0.97266392  0.71161969  0.71611342    -0.29500
C2811       C  0.87651763  0.69647911  0.78018320    -0.29800
N2812       N  0.86115042  0.70348516  0.74876883     0.15200
H2813       H  0.87088912  0.70172250  0.80947246     0.17800
C2814       C  0.87576440  0.69563042  0.71693918    -0.29800
H2815       H  0.86833032  0.69899879  0.68797928     0.17800
H2816       H  0.97779778  0.71719819  0.68674712     0.17800
H2817       H  0.95782348  0.61849955  0.80839311     0.17900
H2818       H  0.97960428  0.71568895  0.80859734     0.17800
C2819       C  0.86226043  0.93213230  0.95805238     0.31700
C2820       C  0.86137490  0.93236053  0.53753266     0.31700
C2821       C  0.89099404  0.93796524  0.97790060    -0.04500
C2822       C  0.84270529  0.95345198  0.97739231    -0.05300
C2823       C  0.85369918  0.90401031  0.97764415    -0.05100
C2824       C  0.89049405  0.93825001  0.51821877    -0.04500
C2825       C  0.84209140  0.95346978  0.51730217    -0.05200
C2826       C  0.85314881  0.90418154  0.51792520    -0.05100
C2827       C  0.91722859  0.94639156  0.52990285    -0.30500
N2828       N  0.93351016  0.95154130  0.99848077     0.16000
C2829       C  0.91815429  0.94546220  0.96669739    -0.30500
H2830       H  0.92573103  0.94852561  0.93765397     0.17900
C2831       C  0.82235702  0.97308252  0.52843068    -0.29500
N2832       N  0.81140382  0.98501350  0.99632322     0.14700
C2833       C  0.82369876  0.97331178  0.96500750    -0.29500
C2834       C  0.84414940  0.87771959  0.52935126    -0.29800
N2835       N  0.83863494  0.86197705  0.99778549     0.15200
H2836       H  0.84105878  0.87029606  0.55841583     0.17800
C2837       C  0.84533220  0.87731597  0.96615229    -0.29800
H2838       H  0.84276966  0.86988685  0.93702204     0.17800
H2839       H  0.81846763  0.97827040  0.93552276     0.17800
H2840       H  0.92418655  0.94995909  0.55903550     0.17900
H2841       H  0.81608402  0.97805921  0.55756177     0.17800
C2842       C  0.86221265  0.93149128  0.70837966     0.31700
C2843       C  0.86225916  0.93188598  0.78784036     0.31700
C2844       C  0.89094689  0.93836889  0.72780408    -0.04500
C2845       C  0.84211013  0.95214589  0.72809599    -0.05300
C2846       C  0.85471439  0.90311323  0.72831859    -0.05100
C2847       C  0.89107879  0.93838630  0.76810849    -0.04500
C2848       C  0.84226796  0.95238795  0.76796204    -0.05200
C2849       C  0.85443165  0.90346226  0.76862734    -0.05100
C2850       C  0.91809616  0.94641266  0.77931515    -0.30500
N2851       N  0.93367007  0.95236873  0.74750950     0.16000
C2852       C  0.91767000  0.94676812  0.71611785    -0.30500
H2853       H  0.92485876  0.94996579  0.68694413     0.17900
C2854       C  0.82282845  0.97197454  0.77977241    -0.29500
N2855       N  0.81087258  0.98353065  0.74812982     0.14700
C2856       C  0.82242637  0.97159239  0.71637239    -0.29500
C2857       C  0.84530323  0.87713107  0.78050047    -0.29800
N2858       N  0.83985797  0.86109181  0.74916571     0.15200
H2859       H  0.84184580  0.87014950  0.80970876     0.17800
C2860       C  0.84646469  0.87625552  0.71729890    -0.29800
H2861       H  0.84375658  0.86862391  0.68830163     0.17800
H2862       H  0.81698695  0.97679637  0.68703907     0.17800
H2863       H  0.92549631  0.94965239  0.80833788     0.17900
H2864       H  0.81739589  0.97713619  0.80915029     0.17800
O2865       O  0.97865421  0.96428845  0.97550573    -0.76800
C2866       C  0.52143703  0.51775019  0.89294011     0.84300
O2867       O  0.57677847  0.97648369  0.51918251    -0.77900
O2868       O  0.56313890  0.57456904  0.97463700    -0.79400
O2869       O  0.96624818  0.56112621  0.52072380    -0.79200
O2870       O  0.95861829  0.99028752  0.52120996    -0.77800
Zn2871     Zn  0.51668656  0.98399957  0.96594648     1.55700
O2872       O  0.49196313  0.58082740  0.97414403    -0.79200
Cd2873     Cd  0.98686636  0.52293853  0.52901182     1.59700
Cd2874     Cd  0.55650082  0.51477104  0.52769627     1.59600
O2875       O  0.99850610  0.52184488  0.58469888    -0.79200
O2876       O  0.52127564  0.51812864  0.99649501    -1.89700
Cd2877     Cd  0.52519652  0.55311832  0.96540689     1.59900
O2878       O  0.54554070  0.51605384  0.58392836    -0.79100
O2879       O  0.52434571  0.54136754  0.90971524    -0.77800
C2880       C  0.57051010  0.95594018  0.99721370     0.84700
C2881       C  0.95825714  0.96918277  0.99865575     0.84400
O2882       O  0.51827447  0.99454755  0.91082419    -0.76700
C2883       C  0.97104199  0.58129348  0.49737029     0.85200
O2884       O  0.54870912  0.95647582  0.97563557    -0.76800
C2885       C  0.52214457  0.51901102  0.60155856     0.85300
C2886       C  0.58380889  0.56989500  0.99722842     0.85700
O2887       O  0.58433115  0.54825879  0.51900924    -0.79300
O2888       O  0.55004305  0.95679181  0.76879991    -0.76800
C2889       C  0.52175191  0.51771490  0.85155077     0.84300
O2890       O  0.95888263  0.99123861  0.72486365    -0.77900
O2891       O  0.49428223  0.58151997  0.77090019    -0.79400
O2892       O  0.58550539  0.54802790  0.72484734    -0.79200
O2893       O  0.57769815  0.97695388  0.72456054    -0.77800
Zn2894     Zn  0.51758674  0.98398100  0.77846583     1.55700
O2895       O  0.56519026  0.57319453  0.77119402    -0.79200
Cd2896     Cd  0.55726238  0.51498925  0.71595940     1.59700
Cd2897     Cd  0.98765816  0.52346929  0.71629671     1.59600
O2898       O  0.54593896  0.51621887  0.65989794    -0.79200
O2899       O  0.52226984  0.51818371  0.74795643    -1.89700
Cd2900     Cd  0.52668443  0.55290901  0.77926794     1.59900
O2901       O  0.99890250  0.52218274  0.66029468    -0.79100
O2902       O  0.52495586  0.54129621  0.83477210    -0.77800
C2903       C  0.95859281  0.96983088  0.74698969     0.84700
C2904       C  0.57183914  0.95651231  0.74699814     0.84400
O2905       O  0.51880348  0.99452353  0.83366215    -0.76700
C2906       C  0.58560108  0.56882941  0.74801002     0.85200
O2907       O  0.97932691  0.96437190  0.76924063    -0.76800
C2908       C  0.52236292  0.51915204  0.64284996     0.85300
C2909       C  0.97302869  0.58209549  0.74843444     0.85700
O2910       O  0.96770427  0.56190961  0.72542171    -0.79300
C2911       C  0.61712497  0.86325337  0.95780374     0.31700
C2912       C  0.61742743  0.86427004  0.53717057     0.31700
C2913       C  0.60668563  0.89079107  0.97706085    -0.04500
C2914       C  0.59930874  0.84068922  0.97821869    -0.05300
C2915       C  0.64655596  0.85957556  0.97709910    -0.05100
C2916       C  0.60669390  0.89098850  0.51715167    -0.04500
C2917       C  0.59956565  0.84077655  0.51823649    -0.05200
C2918       C  0.64645803  0.85961133  0.51753969    -0.05100
C2919       C  0.59498672  0.91613391  0.52897730    -0.30500
N2920       N  0.58786696  0.93121117  0.99735653     0.16000
C2921       C  0.59547251  0.91640511  0.96571216    -0.30500
H2922       H  0.59245656  0.92386296  0.93667130     0.17900
C2923       C  0.58285615  0.81833165  0.52990941    -0.29500
N2924       N  0.57196264  0.80552123  0.99827923     0.14700
C2925       C  0.58213421  0.81890024  0.96661576    -0.29500
C2926       C  0.67083047  0.84592489  0.52899525    -0.29800
N2927       N  0.68635554  0.83928201  0.99761480     0.15200
H2928       H  0.67555570  0.83870002  0.55778291     0.17800
C2929       C  0.67202195  0.84759756  0.96595510    -0.29800
H2930       H  0.67918728  0.84360251  0.93701986     0.17800
H2931       H  0.57724492  0.81328064  0.93725552     0.17800
H2932       H  0.59040826  0.92224840  0.55827087     0.17900
H2933       H  0.57829167  0.81213050  0.55918957     0.17800
C2934       C  0.61746494  0.86444641  0.70789117     0.31700
C2935       C  0.61774539  0.86416690  0.78730731     0.31700
C2936       C  0.60872377  0.89200904  0.72765598    -0.04500
C2937       C  0.59824720  0.84247586  0.72763299    -0.05300
C2938       C  0.64610257  0.85776094  0.72704164    -0.05100
C2939       C  0.60894131  0.89214278  0.76781457    -0.04500
C2940       C  0.59818899  0.84274170  0.76765883    -0.05200
C2941       C  0.64669904  0.85856086  0.76733374    -0.05100
C2942       C  0.59763946  0.91773552  0.77892489    -0.30500
N2943       N  0.58974551  0.93220819  0.74711927     0.16000
C2944       C  0.59675423  0.91694739  0.71563939    -0.30500
H2945       H  0.59139187  0.92252890  0.68639245     0.17900
C2946       C  0.57985607  0.82198979  0.77990090    -0.29500
N2947       N  0.56923098  0.80878713  0.74854418     0.14700
C2948       C  0.58068017  0.82068990  0.71658849    -0.29500
C2949       C  0.67275522  0.84789359  0.77819441    -0.29800
N2950       N  0.68639614  0.83827223  0.74651665     0.15200
H2951       H  0.68044080  0.84506291  0.80716293     0.17800
C2952       C  0.67007165  0.84350420  0.71540410    -0.29800
H2953       H  0.67453413  0.83596780  0.68671648     0.17800
H2954       H  0.57625217  0.81398570  0.68753966     0.17800
H2955       H  0.59423362  0.92512697  0.80790576     0.17900
H2956       H  0.57479393  0.81667475  0.80938107     0.17800
C2957       C  0.67435936  0.61877306  0.53810935     0.31700
C2958       C  0.67360506  0.62055991  0.95886309     0.31700
C2959       C  0.68365737  0.64668661  0.51942594    -0.04500
C2960       C  0.69316431  0.59726352  0.51751637    -0.05300
C2961       C  0.64546604  0.61256460  0.51896581    -0.05100
C2962       C  0.68257175  0.64811024  0.97941514    -0.04500
C2963       C  0.69306875  0.59857407  0.97752751    -0.05200
C2964       C  0.64460032  0.61452871  0.97865394    -0.05100
C2965       C  0.69371212  0.67413505  0.96926321    -0.30500
N2966       N  0.70378010  0.68697315  0.00124643     0.16000
C2967       C  0.69771445  0.67046112  0.53205028    -0.30500
H2968       H  0.70457237  0.67462389  0.56111805     0.17900
C2969       C  0.71193800  0.57878783  0.96437907    -0.29500
N2970       N  0.72292812  0.56522050  0.99516325     0.14700
C2971       C  0.71136165  0.57593561  0.52768370    -0.29500
C2972       C  0.61959523  0.60158657  0.96723440    -0.29800
N2973       N  0.60715734  0.58939860  0.99822460     0.15200
H2974       H  0.61217142  0.59883756  0.93813945     0.17800
C2975       C  0.62322679  0.59504627  0.52942987    -0.29800
H2976       H  0.62000842  0.58557512  0.55741065     0.17800
H2977       H  0.71647610  0.56907308  0.55647825     0.17800
H2978       H  0.69632985  0.68246716  0.94055296     0.17900
H2979       H  0.71747998  0.57466535  0.93473567     0.17800
C2980       C  0.67486568  0.62055632  0.78821703     0.31700
C2981       C  0.67553713  0.62004815  0.70883047     0.31700
C2982       C  0.68217080  0.64885475  0.76814622    -0.04500
C2983       C  0.69564551  0.60016447  0.76887966    -0.05300
C2984       C  0.64634551  0.61292676  0.76835973    -0.05100
C2985       C  0.68267954  0.64831133  0.72795811    -0.04500
C2986       C  0.69577586  0.59962222  0.72885208    -0.05200
C2987       C  0.64732156  0.61162211  0.72809882    -0.05100
C2988       C  0.69548777  0.67287756  0.71557300    -0.30500
N2989       N  0.70234982  0.68845348  0.74679746     0.16000
C2990       C  0.69365911  0.67450918  0.77875431    -0.30500
H2991       H  0.69721163  0.68210489  0.80757368     0.17900
C2992       C  0.71391024  0.57853190  0.71788389    -0.29500
N2993       N  0.72545434  0.56712236  0.74988220     0.14700
C2994       C  0.71440099  0.58003793  0.78123559    -0.29500
C2995       C  0.62533685  0.59426077  0.71686275    -0.29800
N2996       N  0.60929943  0.58782705  0.74790384     0.15200
H2997       H  0.62203371  0.58572117  0.68842331     0.17800
C2998       C  0.62142167  0.59955529  0.77933640    -0.29800
H2999       H  0.61359067  0.59655058  0.80826580     0.17800
H3000       H  0.71927990  0.57479396  0.81070995     0.17800
H3001       H  0.70209733  0.67760753  0.68647036     0.17900
H3002       H  0.71851043  0.57183758  0.68883047     0.17800
O3003       O  0.75015362  0.76756275  0.91205788    -0.76800
C3004       C  0.72300504  0.71049116  0.00104834     0.84300
O3005       O  0.73040205  0.82612712  0.52202271    -0.77900
O3006       O  0.77961555  0.74833520  0.58547488    -0.79400
O3007       O  0.83780339  0.74577782  0.97521515    -0.79200
O3008       O  0.79704308  0.77508100  0.91023537    -0.77800
Zn3009     Zn  0.73912693  0.76796870  0.96701103     1.55700
O3010       O  0.81687380  0.71734239  0.51781264    -0.79200
Cd3011     Cd  0.80841348  0.77759722  0.96613967     1.59700
Cd3012     Cd  0.76889278  0.80622825  0.53020090     1.59600
O3013       O  0.82734480  0.81700320  0.97421624    -0.79200
O3014       O  0.77331438  0.77216090  0.99754552    -1.89700
Cd3015     Cd  0.77861124  0.73740307  0.52906475     1.59900
O3016       O  0.80104860  0.83512388  0.52124399    -0.79100
O3017       O  0.74481952  0.70970280  0.52255755    -0.77800
C3018       C  0.71074297  0.82136737  0.99790322     0.84700
C3019       C  0.77336890  0.77084124  0.89398515     0.84400
O3020       O  0.71846131  0.73115712  0.97843861    -0.76700
C3021       C  0.83781517  0.72371679  0.49622282     0.85200
O3022       O  0.71188291  0.80061255  0.97471681    -0.76800
C3023       C  0.82183764  0.83672244  0.49791560     0.85300
C3024       C  0.77570036  0.77150080  0.60288266     0.85700
O3025       O  0.77086886  0.79472295  0.58606865    -0.79300
O3026       O  0.71884667  0.73191944  0.72397512    -0.76800
C3027       C  0.71115434  0.82084195  0.74684762     0.84300
O3028       O  0.79974814  0.77434999  0.66081493    -0.77900
O3029       O  0.80146905  0.83477233  0.77165012    -0.79400
O3030       O  0.77585234  0.74727277  0.83565567    -0.79200
O3031       O  0.74329122  0.71009012  0.76972738    -0.77800
Zn3032     Zn  0.74037973  0.76841068  0.71534163     1.55700
O3033       O  0.77015503  0.79414696  0.83593597    -0.79200
Cd3034     Cd  0.77733846  0.73674711  0.77901728     1.59700
Cd3035     Cd  0.80967107  0.77652545  0.71752865     1.59600
O3036       O  0.81560481  0.71577614  0.76974200    -0.79200
O3037       O  0.77378993  0.77174120  0.74750114    -1.89700
Cd3038     Cd  0.76908794  0.80583639  0.78006264     1.59900
O3039       O  0.83782217  0.74389187  0.72788072    -0.79100
O3040       O  0.73048622  0.82552508  0.77148352    -0.77800
C3041       C  0.77610250  0.77148800  0.64390103     0.84700
C3042       C  0.72226299  0.71128328  0.74689292     0.84400
O3043       O  0.71293764  0.80053264  0.72307835    -0.76700
C3044       C  0.77289372  0.77064563  0.85293383     0.85200
O3045       O  0.75256357  0.76914619  0.66132686    -0.76800
C3046       C  0.83699917  0.72175239  0.74871801     0.85300
C3047       C  0.82297358  0.83585049  0.74944026     0.85700
O3048       O  0.82906099  0.81566761  0.72670565    -0.79300
C3049       C  0.66161199  0.59774236  0.89366898     0.25300
C3050       C  0.67538326  0.61934060  0.91452902    -0.22800
C3051       C  0.69681582  0.63386307  0.89394573     0.20200
C3052       C  0.69722139  0.63379084  0.85360298     0.25300
C3053       C  0.67633679  0.61900953  0.83259439    -0.22700
C3054       C  0.66227353  0.59746431  0.85335304     0.20200
F3055       F  0.65289146  0.57391193  0.83528170    -0.12700
F3056       F  0.65108008  0.57466416  0.91190643    -0.15100
F3057       F  0.72052698  0.64439101  0.83575656    -0.15100
F3058       F  0.71992692  0.64420834  0.91230509    -0.12700
C3059       C  0.70080950  0.61824510  0.60282088     0.25300
C3060       C  0.67499250  0.61980657  0.58240619    -0.22800
C3061       C  0.65063581  0.62729193  0.60377591     0.20200
C3062       C  0.65109385  0.62802703  0.64392786     0.25300
C3063       C  0.67580727  0.62107666  0.66455856    -0.22700
C3064       C  0.70122842  0.61903776  0.64319890     0.23000
F3065       F  0.72674080  0.61955499  0.66110310    -0.12700
F3066       F  0.72594205  0.61762465  0.58379333    -0.15100
F3067       F  0.62762929  0.63760342  0.66230800    -0.15100
F3068       F  0.62668023  0.63619558  0.58613406    -0.12700
C3069       C  0.63093509  0.84115334  0.85221459     0.25300
C3070       C  0.61603188  0.86208982  0.83160585    -0.22800
C3071       C  0.59408141  0.87538580  0.85239723     0.20200
C3072       C  0.59365240  0.87481334  0.89269760     0.25300
C3073       C  0.61533339  0.86121859  0.91349870    -0.22700
C3074       C  0.63058751  0.84072776  0.89259329     0.20200
F3075       F  0.64187616  0.81805468  0.91066893    -0.12700
F3076       F  0.64253461  0.81883193  0.83371426    -0.15100
F3077       F  0.56983945  0.88380985  0.91073177    -0.15100
F3078       F  0.57087230  0.88542945  0.83410785    -0.12700
C3079       C  0.64065996  0.87604787  0.60230649     0.25300
C3080       C  0.61693638  0.86624410  0.58144822    -0.22800
C3081       C  0.59152450  0.86246940  0.60242672     0.20200
C3082       C  0.59147721  0.86270016  0.64279580     0.25300
C3083       C  0.61693035  0.86613683  0.66360585    -0.22700
C3084       C  0.64074318  0.87577146  0.64259449     0.20200
F3085       F  0.66357687  0.88690672  0.66080696    -0.12700
F3086       F  0.66311867  0.88805156  0.58404974    -0.15100
F3087       F  0.56614795  0.86139996  0.66127455    -0.15100
F3088       F  0.56630603  0.86019497  0.58401913    -0.12700
C3089       C  0.76495950  0.50137382  0.72578229     0.25300
C3090       C  0.78929956  0.50462150  0.74847093    -0.22800
C3091       C  0.79219271  0.52847658  0.77200166     0.20200
C3092       C  0.77103347  0.54890673  0.77275204     0.25300
C3093       C  0.74665061  0.54564361  0.75014665    -0.22700
C3094       C  0.74372490  0.52174478  0.72666715     0.20200
F3095       F  0.72001389  0.51788725  0.70527837    -0.12700
F3096       F  0.76143506  0.97807418  0.70367102    -0.15100
F3097       F  0.77480338  0.57241113  0.79438667    -0.15100
F3098       F  0.81594089  0.53235707  0.79330896    -0.12700
C3099       C  0.79268670  0.53095284  0.97629749     0.25300
C3100       C  0.78896050  0.50512122  0.99539592    -0.22800
C3101       C  0.76294448  0.99883718  0.01308862     0.20200
C3102       C  0.74098176  0.51845234  0.01239009     0.25300
C3103       C  0.74483906  0.54450631  0.99394425    -0.22700
C3104       C  0.77071020  0.55059666  0.97559681     0.20200
F3105       F  0.77493420  0.57595275  0.95829670    -0.12700
F3106       F  0.81788814  0.53737387  0.95943886    -0.15100
F3107       F  0.71574904  0.51193722  0.02905694    -0.15100
F3108       F  0.75873220  0.97341681  0.53019768    -0.12700
C3109       C  0.83901968  0.91990600  0.89328877     0.25300
C3110       C  0.86074874  0.93379803  0.91384108    -0.22800
C3111       C  0.87596465  0.95450732  0.89297777     0.20200
C3112       C  0.87570275  0.95464351  0.85262461     0.25300
C3113       C  0.86049609  0.93388234  0.83205135    -0.22700
C3114       C  0.83890013  0.91993844  0.85297331     0.20200
F3115       F  0.81586869  0.90918954  0.83480543    -0.12700
F3116       F  0.81609682  0.90910147  0.91186570    -0.15100
F3117       F  0.88746746  0.97702179  0.83411031    -0.15100
F3118       F  0.88838312  0.97653892  0.91129838    -0.12700
C3119       C  0.87457396  0.95480143  0.60276507     0.25300
C3120       C  0.85957354  0.93403485  0.58193217    -0.22800
C3121       C  0.83865559  0.91919041  0.60302994     0.20200
C3122       C  0.83918276  0.91863284  0.64340132     0.25300
C3123       C  0.86042722  0.93321068  0.66403249    -0.22700
C3124       C  0.87491668  0.95445796  0.64315652     0.20200
F3125       F  0.88672310  0.97678241  0.66154313    -0.12700
F3126       F  0.88632996  0.97726576  0.58444476    -0.15100
F3127       F  0.81687446  0.90667167  0.66201095    -0.15100
F3128       F  0.81563493  0.90819199  0.58514946    -0.12700
C3129       C  0.53140445  0.74135634  0.72576383     0.25300
C3130       C  0.00668762  0.74415732  0.74793168    -0.22800
C3131       C  0.00286789  0.76843739  0.77044475     0.20200
C3132       C  0.52353796  0.78959412  0.77087085     0.25300
C3133       C  0.54837338  0.78671676  0.74889313    -0.22700
C3134       C  0.55219515  0.76244647  0.72639568     0.20200
F3135       F  0.57638700  0.75894839  0.70579303    -0.12700
F3136       F  0.53564332  0.71787544  0.70430318    -0.15100
F3137       F  0.51888313  0.81336259  0.79161816    -0.15100
F3138       F  0.97863958  0.77203284  0.79097050    -0.12700
C3139       C  0.52732657  0.78522932  0.97399733     0.25300
C3140       C  0.55105973  0.78334311  0.99820814    -0.22800
C3141       C  0.55363744  0.75992068  0.52279804     0.20200
C3142       C  0.53285445  0.73870983  0.52300297     0.25300
C3143       C  0.50924404  0.74062498  0.99860956    -0.22700
C3144       C  0.00659308  0.76416164  0.97432986     0.20200
F3145       F  0.98328671  0.76729191  0.95196301    -0.12700
F3146       F  0.52364335  0.80806047  0.95100461    -0.15100
F3147       F  0.53605486  0.71599706  0.54633679    -0.15100
F3148       F  0.57660973  0.75727665  0.54588170    -0.12700
C3149       C  0.91809374  0.65141415  0.89301443     0.25300
C3150       C  0.92765258  0.67508427  0.91407349    -0.22800
C3151       C  0.93128923  0.70046538  0.89333085     0.20200
C3152       C  0.93087946  0.70068126  0.85295911     0.25300
C3153       C  0.92735239  0.67542655  0.83195377    -0.22700
C3154       C  0.91802322  0.65157665  0.85281348     0.20200
F3155       F  0.90663243  0.62894746  0.83459795    -0.12700
F3156       F  0.90649252  0.62869795  0.91093909    -0.15100
F3157       F  0.93218335  0.72594645  0.83468573    -0.15100
F3158       F  0.93361659  0.72545711  0.91202254    -0.12700
C3159       C  0.91780589  0.69782803  0.64312043     0.25300
C3160       C  0.93122348  0.67612652  0.66398483    -0.22800
C3161       C  0.95157725  0.66060210  0.64305504     0.20200
C3162       C  0.95119477  0.66023451  0.60267676     0.25300
C3163       C  0.93063053  0.67561180  0.58198538    -0.22700
C3164       C  0.91748426  0.69757498  0.60279913     0.20200
F3165       F  0.90804563  0.72100639  0.58460055    -0.12700
F3166       F  0.90858399  0.72140237  0.66119323    -0.15100
F3167       F  0.97323292  0.64790771  0.58417954    -0.15100
F3168       F  0.97416336  0.64898022  0.66106227    -0.12700
loop_ 
_geom_bond_atom_site_label_1 
_geom_bond_atom_site_label_2 
_geom_bond_distance 
_geom_bond_site_symmetry_2 
_ccdc_geom_bond_type 
C1            C3   1.543       .  S
C1            C5   1.531       .  S
C1            C4   1.534       .  S
C1          C378   1.544       .  S
C2            C6   1.557       .  S
C2            C8   1.552       .  S
C2            C7   1.540       .  S
C2          C391   1.549       .  S
C3           C11   1.380       .  A
C3          C402   1.408       .  A
C4           C15   1.375       .  A
C4          C403   1.394       .  A
C5           C19   1.377       .  A
C5          C404   1.395       .  A
C6            C9   1.388       .  A
C6          C399   1.408   1_554  A
C7           C13   1.378       .  A
C7          C400   1.394   1_554  A
C8           C16   1.386       .  A
C8          C401   1.395   1_554  A
C9           N10   1.356   1_554  A
C9           H22   1.081       .  S
N10         C407   1.351       .  A
N10         C111   1.434       .  S
C11         N406   1.351       .  A
C11          H12   1.083       .  S
C13         N410   1.358   1_554  A
C13          H23   1.082       .  S
N14          C15   1.358       .  A
N14         C409   1.358       .  A
N14        C1955   1.437       .  S
C15          H21   1.082       .  S
C16          N17   1.358   1_554  A
C16          H18   1.082       .  S
N17         C415   1.355       .  A
N17         C249   1.434       .  S
C19         N413   1.355       .  A
C19          H20   1.082       .  S
C24          C26   1.556       .  S
C24          C28   1.550       .  S
C24          C27   1.536       .  S
C24         C388   1.548       .  S
C25          C29   1.543       .  S
C25          C31   1.534       .  S
C25          C30   1.536       .  S
C25         C381   1.543       .  S
C26          C34   1.386       .  A
C26          C29   1.405       .  A
C27          C38   1.377       .  A
C27          C30   1.395       .  A
C28          C42   1.384       .  A
C28          C31   1.397       .  A
C29          C32   1.380       .  A
C30          C36   1.376       .  A
C31          C39   1.379       .  A
C32          N33   1.353       .  A
C32          H45   1.083       .  S
N33          C34   1.355       .  A
N33         C137   1.433       .  S
C34          H35   1.080       .  S
C36          N37   1.356       .  A
C36          H46   1.082       .  S
N37          C38   1.357       .  A
N37         C358   1.433       .  S
C38          H44   1.083       .  S
C39          N40   1.356       .  A
C39          H41   1.083       .  S
N40          C42   1.357       .  A
N40         C274   1.434       .  S
C42          H43   1.081       .  S
C47          C49   1.547       .  S
C47          C51   1.548       .  S
C47          C50   1.527       .  S
C47         C338   1.544       .  S
C48          C52   1.552       .  S
C48          C54   1.550       .  S
C48          C53   1.528       .  S
C48         C348   1.551       .  S
C49          C57   1.383       .  A
C49         C448   1.404       .  A
C50          C61   1.372       .  A
C50         C449   1.390       .  A
C51          C65   1.384       .  A
C51         C450   1.403       .  A
C52          C55   1.380       .  A
C52         C445   1.404   1_554  A
C53          C59   1.374       .  A
C53         C446   1.390   1_554  A
C54          C62   1.380       .  A
C54         C447   1.403   1_554  A
C55         N452   1.356   1_554  A
C55          H68   1.081       .  S
N56          C57   1.355       .  A
N56         C451   1.356       .  A
N56         C109   1.433       .  S
C57          H58   1.081       .  S
C59         N456   1.357   1_554  A
C59          H69   1.083       .  S
N60          C61   1.354       .  A
N60         C455   1.357       .  A
N60        C1120   1.428       .  S
C61          H67   1.082       .  S
C62         N459   1.355   1_554  A
C62          H64   1.080       .  S
N63          C65   1.355       .  A
N63         C458   1.355       .  A
N63         C647   1.433       .  S
C65          H66   1.081       .  S
C70          C72   1.550       .  S
C70          C74   1.552       .  S
C70          C73   1.528       .  S
C70         C351   1.549       .  S
C71          C75   1.551       .  S
C71          C77   1.549       .  S
C71          C76   1.524       .  S
C71         C341   1.545       .  S
C72          C80   1.380       .  A
C72          C75   1.404       .  A
C73          C84   1.373       .  A
C73          C76   1.389       .  A
C74          C88   1.385       .  A
C74          C77   1.404       .  A
C75          C78   1.386       .  A
C76          C82   1.370       .  A
C77          C85   1.381       .  A
C78          N79   1.356       .  A
C78          H91   1.081       .  S
N79          C80   1.356       .  A
N79         C131   1.435       .  S
C80          H81   1.081       .  S
C82          N83   1.355       .  A
C82          H92   1.083       .  S
N83          C84   1.357       .  A
N83        C1110   1.429       .  S
C84          H90   1.082       .  S
C85          N86   1.356       .  A
C85          H87   1.081       .  S
N86          C88   1.356       .  A
N86         C275   1.435       .  S
C88          H89   1.081       .  S
O93         C109   1.276       .  A
O93       Zn1683   2.045       .  S
C94         O107   1.271       .  A
C94         O902   1.271   1_545  A
C94         C117   1.442       .  S
O95         C504   1.274   1_554  A
O95        Cd894   2.076       .  S
O96         C114   1.274       .  A
O96        Cd105   2.081       .  S
O97         C111   1.273   1_554  A
O97        Cd101   2.078       .  S
O98         C505   1.273   1_554  A
O98        Cd893   2.057       .  S
Zn99        O110   1.984       .  S
Zn99        O112   2.028       .  S
Zn99       O1677   2.045   1_455  S
Zn99        O896   1.949       .  S
O100       C2091   1.274       .  A
O100       Cd105   2.071   1_655  S
Cd101       O103   2.018       .  S
Cd101       O890   2.057   1_545  S
Cd101      O2084   1.990   1_554  S
Cd102       O106   2.025       .  S
Cd102       O115   2.077       .  S
Cd102       O887   2.076   1_545  S
Cd102       O500   1.994   1_554  S
O103       C1697   1.269       .  A
O104       Zn891   1.949   1_545  S
O104       Cd105   1.987       .  S
O104      Cd2081   1.990   1_455  S
O104       Cd498   1.994       .  S
Cd105       O107   2.019       .  S
O106        C113   1.270       .  A
C108        N148   1.432       .  S
C108        O112   1.276       .  A
C108        O491   1.274       .  A
C109        O494   1.273       .  A
O110        C886   1.271       .  A
C111       O2080   1.274       .  A
C113       O1687   1.269   1_455  A
C113        C136   1.438       .  S
C114        N201   1.436       .  S
C114        O511   1.275       .  A
O115        C510   1.275   1_554  A
O116        C132   1.276       .  A
O116       Zn122   2.033       .  S
C117        O130   1.269       .  A
C117        O925   1.272   1_545  A
O118        C131   1.273       .  A
O118       Cd917   2.060       .  S
O119       C1721   1.274       .  A
O119       Cd128   2.068   1_655  S
O120        C134   1.275       .  A
O120       Cd124   2.076       .  S
O121        C132   1.273       .  A
O121       Cd916   2.070       .  S
Zn122       O133   1.988       .  S
Zn122      O1719   2.053   1_455  S
Zn122       O919   1.949       .  S
O123        C134   1.272       .  A
O123       Cd128   2.070       .  S
Cd124       O126   2.026       .  S
Cd124       O913   2.070   1_545  S
Cd124       O127   1.995       .  S
Cd125       O129   2.021       .  S
Cd125       O138   2.079       .  S
Cd125       O910   2.060   1_545  S
Cd125      O1711   1.989       .  S
O126        C136   1.270       .  A
O127       Zn914   1.949   1_545  S
O127       Cd128   1.986       .  S
O127      Cd1709   1.989   1_455  S
Cd128       O130   2.011       .  S
O129       C1720   1.270       .  A
C131        O135   1.276       .  A
C132        N171   1.431       .  S
O133        C909   1.272       .  A
C134        N224   1.433       .  S
O135      Zn1706   2.053       .  S
C136       O1713   1.270   1_455  A
C137        O138   1.274       .  A
C137       O1703   1.274       .  A
C139        C141   1.550       .  S
C139        C143   1.554       .  S
C139        C142   1.531       .  S
C139        C301   1.549       .  S
C140        C144   1.533       .  S
C140        C146   1.545       .  S
C140        C145   1.544       .  S
C140        C308   1.545       .  S
C141        C149   1.384       .  A
C141        C540   1.396       .  A
C142        C153   1.372       .  A
C142        C541   1.394       .  A
C143        C157   1.385       .  A
C143        C542   1.408       .  A
C144        C147   1.379       .  A
C144        C537   1.396   1_554  A
C145        C151   1.382       .  A
C145        C538   1.394   1_554  A
C146        C154   1.382       .  A
C146        C539   1.408   1_554  A
C147        N544   1.356   1_554  A
C147        H160   1.082       .  S
N148        C149   1.356       .  A
N148        C543   1.356       .  A
C149        H150   1.081       .  S
C151        N548   1.360   1_554  A
C151        H161   1.082       .  S
N152        C153   1.357       .  A
N152        C547   1.360       .  A
N152        C368   1.438       .  S
C153        H159   1.082       .  S
C154        N551   1.352   1_554  A
C154        H156   1.083       .  S
N155        C157   1.354       .  A
N155        C550   1.352       .  A
N155        C246   1.432       .  S
C157        H158   1.079       .  S
C162        C164   1.535       .  S
C162        C166   1.542       .  S
C162        C165   1.538       .  S
C162        C311   1.545       .  S
C163        C167   1.548       .  S
C163        C169   1.555       .  S
C163        C168   1.533       .  S
C163        C298   1.548       .  S
C164        C172   1.377       .  A
C164        C167   1.399       .  A
C165        C176   1.377       .  A
C165        C168   1.394       .  A
C166        C180   1.380       .  A
C166        C169   1.404       .  A
C167        C170   1.382       .  A
C168        C174   1.374       .  A
C169        C177   1.384       .  A
C170        N171   1.356       .  A
C170        H183   1.081       .  S
N171        C172   1.355       .  A
C172        H173   1.083       .  S
C174        N175   1.356       .  A
C174        H184   1.083       .  S
N175        C176   1.357       .  A
N175        C361   1.433       .  S
C176        H182   1.082       .  S
C177        N178   1.356       .  A
C177        H179   1.081       .  S
N178        C180   1.354       .  A
N178        C255   1.433       .  S
C180        H181   1.082       .  S
C185        C187   1.535       .  S
C185        C189   1.546       .  S
C185        C188   1.532       .  S
C185        C288   1.544       .  S
C186        C190   1.548       .  S
C186        C192   1.555       .  S
C186        C191   1.536       .  S
C186        C278   1.547       .  S
C187        C195   1.378       .  A
C187        C586   1.396   1_554  A
C188        C199   1.375       .  A
C188        C587   1.394   1_554  A
C189        C203   1.383       .  A
C189        C588   1.408   1_554  A
C190        C193   1.384       .  A
C190        C583   1.396       .  A
C191        C197   1.374       .  A
C191        C584   1.394       .  A
C192        C200   1.387       .  A
C192        C585   1.408       .  A
C193        N194   1.356       .  A
C193        H206   1.081       .  S
N194        C591   1.356       .  A
N194        C232   1.434       .  S
C195        N590   1.356       .  A
C195        H196   1.082       .  S
C197        N198   1.355       .  A
C197        H207   1.083       .  S
N198        C595   1.356       .  A
N198        C331   1.429       .  S
C199        N594   1.356   1_554  A
C199        H205   1.082       .  S
C200        N201   1.355       .  A
C200        H202   1.081       .  S
N201        C599   1.353       .  A
C203        N597   1.353   1_554  A
C203        H204   1.082       .  S
C208        C210   1.549       .  S
C208        C212   1.556       .  S
C208        C211   1.534       .  S
C208        C281   1.549       .  S
C209        C213   1.534       .  S
C209        C215   1.540       .  S
C209        C214   1.531       .  S
C209        C291   1.543       .  S
C210        C218   1.381       .  A
C210        C213   1.400       .  A
C211        C222   1.373       .  A
C211        C214   1.394       .  A
C212        C226   1.386       .  A
C212        C215   1.404       .  A
C213        C216   1.378       .  A
C214        C220   1.372       .  A
C215        C223   1.379       .  A
C216        N217   1.355       .  A
C216        H229   1.083       .  S
N217        C218   1.355       .  A
N217        C270   1.430       .  S
C218        H219   1.080       .  S
C220        N221   1.355       .  A
C220        H230   1.083       .  S
N221        C222   1.357       .  A
N221        C321   1.430       .  S
C222        H228   1.081       .  S
C223        N224   1.351       .  A
C223        H225   1.082       .  S
N224        C226   1.355       .  A
C226        H227   1.081       .  S
O231        C247   1.270       .  A
O231       Zn237   1.982       .  S
C232        O248   1.275       .  A
C232        O641   1.275       .  A
O233        C642   1.273   1_554  A
O233       Cd240   2.069       .  S
O234        C252   1.269       .  A
O234       Cd243   2.033       .  S
O235        C645   1.275       .  A
O235       Cd239   2.077       .  S
O236        C247   1.269       .  A
O236       Cd239   2.025       .  S
Zn237       O248   2.034       .  S
Zn237       O250   2.033       .  S
Zn237       O242   1.944       .  S
O238        C249   1.275   1_554  A
O238       Cd243   2.080       .  S
Cd239       O241   2.087       .  S
Cd239       O242   1.997       .  S
Cd240       O244   2.062       .  S
Cd240       O253   2.022       .  S
Cd240       O638   1.988   1_554  S
O241        C647   1.275       .  A
O242       Cd636   1.988       .  S
O242       Cd639   1.995       .  S
Cd243       O245   2.074       .  S
Cd243       O638   1.995   1_554  S
O244        C251   1.274   1_554  A
O245        C628   1.275       .  A
C246        O250   1.275       .  A
C246        O629   1.273       .  A
C247        C272   1.430       .  S
C249        O631   1.275       .  A
C251        N459   1.433       .  S
C251        O637   1.275       .  A
C252        O253   1.268       .  A
C252        C269   1.429       .  S
O254        C270   1.273       .  A
O254       Zn260   2.024       .  S
C255        O271   1.274       .  A
C255        O268   1.273       .  A
O256        C269   1.270       .  A
O256       Cd263   2.034       .  S
O257        C275   1.275       .  A
O257       Cd266   2.069       .  S
O258        C272   1.270       .  A
O258       Cd262   2.037       .  S
O259        C270   1.274       .  A
O259       Cd262   2.066       .  S
Zn260       O271   2.020       .  S
Zn260       O273   1.966       .  S
Zn260       O265   1.942       .  S
O261        C272   1.268       .  A
O261       Cd266   2.023       .  S
Cd262       O264   2.088       .  S
Cd262       O265   1.996       .  S
Cd263       O267   2.074       .  S
Cd263       O276   2.091       .  S
Cd263       O265   1.998       .  S
O264        C274   1.276       .  A
O265       Cd266   1.989       .  S
Cd266       O268   2.071       .  S
O267        C274   1.275       .  A
C269        O273   1.268       .  A
C275        O276   1.276       .  A
C277        C278   1.413       .  A
C277        C282   1.404       .  A
C277        F284   1.356       .  S
C278        C279   1.414       .  A
C279        C280   1.405       .  A
C279        F286   1.356       .  S
C280        C281   1.413       .  A
C280        F285   1.356       .  S
C281        C282   1.413       .  A
C282        F283   1.356       .  S
C287        C288   1.414       .  A
C287        C292   1.407       .  A
C287        F294   1.357       .  S
C288        C289   1.414       .  A
C289        C290   1.399       .  A
C289        F296   1.356       .  S
C290        C291   1.411       .  A
C290        F295   1.357       .  S
C291        C292   1.413       .  A
C292        F293   1.357       .  S
C297        C298   1.414       .  A
C297        C302   1.406       .  A
C297        F304   1.356       .  S
C298        C299   1.413       .  A
C299        C300   1.404       .  A
C299        F306   1.356       .  S
C300        C301   1.412       .  A
C300        F305   1.356       .  S
C301        C302   1.413       .  A
C302        F303   1.356       .  S
C307        C308   1.413       .  A
C307        C312   1.403       .  A
C307        F314   1.357       .  S
C308        C309   1.413       .  A
C309        C310   1.406       .  A
C309        F316   1.357       .  S
C310        C311   1.413       .  A
C310        F315   1.356       .  S
C311        C312   1.413       .  A
C312        F313   1.357       .  S
C317        C318   1.404       .  A
C317        C322   1.394       .  A
C317       F1116   1.357   1_545  S
C318        C319   1.404       .  A
C318        N875   1.429   1_545  S
C319        C320   1.394       .  A
C319        F326   1.357       .  S
C320        C321   1.404       .  A
C320        F325   1.357       .  S
C321        C322   1.405       .  A
C322        F323   1.357       .  S
F324       C1109   1.357       .  S
C327        C328   1.403       .  A
C327        C332   1.396       .  A
C327        F334   1.357       .  S
C328       C1121   1.402   1_545  A
C328        N852   1.428   1_545  S
C329       C1120   1.402       .  A
C329       C1122   1.395       .  A
C329        F732   1.357       .  S
C330        C331   1.402       .  A
C330       C1121   1.395   1_545  A
C330        F335   1.357       .  S
C331        C332   1.405       .  A
C332        F333   1.357       .  S
F336        C725   1.357       .  S
C337        C338   1.413       .  A
C337        C342   1.404       .  A
C337        F344   1.357       .  S
C338        C339   1.413       .  A
C339        C340   1.406       .  A
C339        F346   1.357       .  S
C340        C341   1.413       .  A
C340        F345   1.357       .  S
C341        C342   1.412       .  A
C342        F343   1.357       .  S
C347        C348   1.413       .  A
C347        C352   1.407       .  A
C347        F354   1.356       .  S
C348        C349   1.413       .  A
C349        C350   1.407       .  A
C349        F356   1.356       .  S
C350        C351   1.413       .  A
C350        F355   1.356       .  S
C351        C352   1.414       .  A
C352        F353   1.356       .  S
C357        C362   1.398       .  A
C357       C1942   1.403       .  A
C357        F364   1.357       .  S
C358        C359   1.406       .  A
C358       C1941   1.403       .  A
C359       C1944   1.396       .  A
C359        F366   1.358       .  S
C360        C361   1.405       .  A
C360       C1943   1.396       .  A
C360        F365   1.358       .  S
C361        C362   1.405       .  A
C362        F363   1.357       .  S
C367        C368   1.406       .  A
C367       C1956   1.395       .  A
C367        F374   1.357       .  S
C368        C765   1.407       .  A
C369        C370   1.401       .  A
C369        C764   1.407   1_554  A
C369        F376   1.357       .  S
C370        C767   1.406   1_554  A
C370        F375   1.357       .  S
C371        C766   1.406       .  A
C371       C1956   1.405       .  A
C371       N1598   1.437   1_455  S
C372       C1951   1.395       .  A
C372       C1955   1.405       .  A
C372        F373   1.357       .  S
C377        C378   1.414       .  A
C377        C382   1.400       .  A
C377        F384   1.356       .  S
C378        C379   1.412       .  A
C379        C380   1.406       .  A
C379        F386   1.357       .  S
C380        C381   1.413       .  A
C380        F385   1.356       .  S
C381        C382   1.411       .  A
C382        F383   1.357       .  S
C387        C388   1.411       .  A
C387        C392   1.405       .  A
C387        F394   1.356       .  S
C388        C389   1.413       .  A
C389        C390   1.407       .  A
C389        F396   1.356       .  S
C390        C391   1.414       .  A
C390        F395   1.356       .  S
C391        C392   1.414       .  A
C392        F393   1.355       .  S
C397        C399   1.543       .  S
C397        C401   1.531       .  S
C397        C400   1.534       .  S
C397        C774   1.544       .  S
C398        C402   1.557       .  S
C398        C404   1.552       .  S
C398        C403   1.540       .  S
C398        C787   1.549       .  S
C399        C407   1.380       .  A
C400        C411   1.375       .  A
C401        C415   1.377       .  A
C402        C405   1.388       .  A
C403        C409   1.378       .  A
C404        C412   1.386       .  A
C405        N406   1.356       .  A
C405        H418   1.081       .  S
N406        C507   1.434       .  S
C407        H408   1.083       .  S
C409        H419   1.082       .  S
N410        C411   1.358       .  A
N410       C2351   1.437       .  S
C411        H417   1.082       .  S
C412        N413   1.358       .  A
C412        H414   1.082       .  S
N413        C645   1.434       .  S
C415        H416   1.082       .  S
C420        C422   1.556       .  S
C420        C424   1.550       .  S
C420        C423   1.536       .  S
C420        C784   1.548       .  S
C421        C425   1.543       .  S
C421        C427   1.534       .  S
C421        C426   1.536       .  S
C421        C777   1.543       .  S
C422        C430   1.386       .  A
C422        C425   1.405       .  A
C423        C434   1.377       .  A
C423        C426   1.395       .  A
C424        C438   1.384       .  A
C424        C427   1.397       .  A
C425        C428   1.380       .  A
C426        C432   1.376       .  A
C427        C435   1.379       .  A
C428        N429   1.353       .  A
C428        H441   1.083       .  S
N429        C430   1.355       .  A
N429        C533   1.433       .  S
C430        H431   1.080       .  S
C432        N433   1.356       .  A
C432        H442   1.082       .  S
N433        C434   1.357       .  A
N433        C754   1.433       .  S
C434        H440   1.083       .  S
C435        N436   1.356       .  A
C435        H437   1.083       .  S
N436        C438   1.357       .  A
N436        C670   1.434       .  S
C438        H439   1.081       .  S
C443        C445   1.547       .  S
C443        C447   1.548       .  S
C443        C446   1.527       .  S
C443        C734   1.544       .  S
C444        C448   1.552       .  S
C444        C450   1.550       .  S
C444        C449   1.528       .  S
C444        C744   1.551       .  S
C445        C453   1.383       .  A
C446        C457   1.372       .  A
C447        C461   1.384       .  A
C448        C451   1.380       .  A
C449        C455   1.374       .  A
C450        C458   1.380       .  A
C451        H464   1.081       .  S
N452        C453   1.355       .  A
N452        C505   1.433       .  S
C453        H454   1.081       .  S
C455        H465   1.083       .  S
N456        C457   1.354       .  A
N456       C1516   1.428       .  S
C457        H463   1.082       .  S
C458        H460   1.080       .  S
N459        C461   1.355       .  A
C461        H462   1.081       .  S
C466        C468   1.550       .  S
C466        C470   1.552       .  S
C466        C469   1.528       .  S
C466        C747   1.549       .  S
C467        C471   1.551       .  S
C467        C473   1.549       .  S
C467        C472   1.524       .  S
C467        C737   1.545       .  S
C468        C476   1.380       .  A
C468        C471   1.404       .  A
C469        C480   1.373       .  A
C469        C472   1.389       .  A
C470        C484   1.385       .  A
C470        C473   1.404       .  A
C471        C474   1.386       .  A
C472        C478   1.370       .  A
C473        C481   1.381       .  A
C474        N475   1.356       .  A
C474        H487   1.081       .  S
N475        C476   1.356       .  A
N475        C527   1.435       .  S
C476        H477   1.081       .  S
C478        N479   1.355       .  A
C478        H488   1.083       .  S
N479        C480   1.357       .  A
N479       C1506   1.429       .  S
C480        H486   1.082       .  S
C481        N482   1.356       .  A
C481        H483   1.081       .  S
N482        C484   1.356       .  A
N482        C671   1.435       .  S
C484        H485   1.081       .  S
O489        C505   1.276       .  A
O489      Zn2079   2.045       .  S
C490       O1298   1.271   1_545  A
C490        O503   1.271       .  A
C490        C513   1.442       .  S
O491      Cd1290   2.076       .  S
O492        C510   1.274       .  A
O492       Cd501   2.081       .  S
O493        C507   1.273       .  A
O493       Cd497   2.078       .  S
O494      Cd1289   2.057       .  S
Zn495      O2073   2.045   1_455  S
Zn495       O506   1.984       .  S
Zn495       O508   2.028       .  S
Zn495      O1292   1.949       .  S
O496       C1695   1.274       .  A
O496       Cd501   2.071   1_655  S
Cd497      O1286   2.057   1_545  S
Cd497       O499   2.018       .  S
Cd497      O1688   1.990       .  S
Cd498      O1283   2.076   1_545  S
Cd498       O502   2.025       .  S
Cd498       O511   2.077       .  S
O499       C2093   1.269       .  A
O500      Zn1287   1.949   1_545  S
O500      Cd1685   1.990   1_456  S
O500       Cd501   1.987       .  S
Cd501       O503   2.019       .  S
O502        C509   1.270       .  A
C504        N544   1.432       .  S
C504        O508   1.276       .  A
O506       C1282   1.271       .  A
C507       O1684   1.274       .  A
C509       O2083   1.269   1_455  A
C509        C532   1.438       .  S
C510        N597   1.436       .  S
O512        C528   1.276       .  A
O512       Zn518   2.033       .  S
C513       O1321   1.272   1_545  A
C513        O526   1.269       .  A
O514        C527   1.273       .  A
O514      Cd1313   2.060       .  S
O515       C2117   1.274       .  A
O515       Cd524   2.068   1_655  S
O516        C530   1.275       .  A
O516       Cd520   2.076       .  S
O517        C528   1.273       .  A
O517      Cd1312   2.070       .  S
Zn518       O529   1.988       .  S
Zn518      O2115   2.053   1_455  S
Zn518      O1315   1.949       .  S
O519        C530   1.272       .  A
O519       Cd524   2.070       .  S
Cd520      O1309   2.070   1_545  S
Cd520       O522   2.026       .  S
Cd520       O523   1.995       .  S
Cd521      O1306   2.060   1_545  S
Cd521       O525   2.021       .  S
Cd521       O534   2.079       .  S
Cd521      O2107   1.989       .  S
O522        C532   1.270       .  A
O523      Zn1310   1.949   1_545  S
O523      Cd2105   1.989   1_455  S
O523       Cd524   1.986       .  S
Cd524       O526   2.011       .  S
O525       C2116   1.270       .  A
C527        O531   1.276       .  A
C528        N567   1.431       .  S
O529       C1305   1.272       .  A
C530        N620   1.433       .  S
O531      Zn2102   2.053       .  S
C532       O2109   1.270   1_455  A
C533       O2099   1.274       .  A
C533        O534   1.274       .  A
C535        C537   1.550       .  S
C535        C539   1.554       .  S
C535        C538   1.531       .  S
C535        C697   1.549       .  S
C536        C540   1.533       .  S
C536        C542   1.545       .  S
C536        C541   1.544       .  S
C536        C704   1.545       .  S
C537        C545   1.384       .  A
C538        C549   1.372       .  A
C539        C553   1.385       .  A
C540        C543   1.379       .  A
C541        C547   1.382       .  A
C542        C550   1.382       .  A
C543        H556   1.082       .  S
N544        C545   1.356       .  A
C545        H546   1.081       .  S
C547        H557   1.082       .  S
N548        C549   1.357       .  A
N548        C764   1.438       .  S
C549        H555   1.082       .  S
C550        H552   1.083       .  S
N551        C553   1.354       .  A
N551        C642   1.432       .  S
C553        H554   1.079       .  S
C558        C560   1.535       .  S
C558        C562   1.542       .  S
C558        C561   1.538       .  S
C558        C707   1.545       .  S
C559        C563   1.548       .  S
C559        C565   1.555       .  S
C559        C564   1.533       .  S
C559        C694   1.548       .  S
C560        C568   1.377       .  A
C560        C563   1.399       .  A
C561        C572   1.377       .  A
C561        C564   1.394       .  A
C562        C576   1.380       .  A
C562        C565   1.404       .  A
C563        C566   1.382       .  A
C564        C570   1.374       .  A
C565        C573   1.384       .  A
C566        N567   1.356       .  A
C566        H579   1.081       .  S
N567        C568   1.355       .  A
C568        H569   1.083       .  S
C570        N571   1.356       .  A
C570        H580   1.083       .  S
N571        C572   1.357       .  A
N571        C757   1.433       .  S
C572        H578   1.082       .  S
C573        N574   1.356       .  A
C573        H575   1.081       .  S
N574        C576   1.354       .  A
N574        C651   1.433       .  S
C576        H577   1.082       .  S
C581        C583   1.536       .  S
C581        C585   1.546       .  S
C581        C584   1.532       .  S
C581        C684   1.544       .  S
C582        C586   1.548       .  S
C582        C588   1.555       .  S
C582        C587   1.536       .  S
C582        C674   1.547       .  S
C583        C591   1.378       .  A
C584        C595   1.375       .  A
C585        C599   1.383       .  A
C586        C589   1.384       .  A
C587        C593   1.374       .  A
C588        C596   1.387       .  A
C589        N590   1.356   1_556  A
C589        H602   1.081       .  S
N590        C628   1.434       .  S
C591        H592   1.082       .  S
C593        N594   1.355       .  A
C593        H603   1.083       .  S
N594        C727   1.429       .  S
C595        H601   1.082       .  S
C596        N597   1.355       .  A
C596        H598   1.081       .  S
C599        H600   1.082       .  S
C604        C606   1.549       .  S
C604        C608   1.556       .  S
C604        C607   1.534       .  S
C604        C677   1.549       .  S
C605        C609   1.534       .  S
C605        C611   1.540       .  S
C605        C610   1.531       .  S
C605        C687   1.543       .  S
C606        C614   1.381       .  A
C606        C609   1.400       .  A
C607        C618   1.373       .  A
C607        C610   1.394       .  A
C608        C622   1.386       .  A
C608        C611   1.404       .  A
C609        C612   1.378       .  A
C610        C616   1.372       .  A
C611        C619   1.379       .  A
C612        N613   1.355       .  A
C612        H625   1.083       .  S
N613        C614   1.355       .  A
N613        C666   1.430       .  S
C614        H615   1.080       .  S
C616        N617   1.355       .  A
C616        H626   1.083       .  S
N617        C618   1.357       .  A
N617        C717   1.430       .  S
C618        H624   1.081       .  S
C619        N620   1.351       .  A
C619        H621   1.082       .  S
N620        C622   1.355       .  A
C622        H623   1.081       .  S
O627        C643   1.270       .  A
O627       Zn633   1.982       .  S
C628        O644   1.275   1_554  A
O629       Cd636   2.069       .  S
O630        C648   1.269       .  A
O630       Cd639   2.033       .  S
O631       Cd635   2.077       .  S
O632        C643   1.269       .  A
O632       Cd635   2.025       .  S
Zn633       O644   2.034       .  S
Zn633       O646   2.033       .  S
Zn633       O638   1.944       .  S
O634        C645   1.275       .  A
O634       Cd639   2.080       .  S
Cd635       O637   2.087       .  S
Cd635       O638   1.997       .  S
Cd636       O640   2.062       .  S
Cd636       O649   2.022       .  S
Cd639       O641   2.074       .  S
O640        C647   1.274       .  A
C642        O646   1.275       .  A
C643        C668   1.430       .  S
C648        O649   1.268       .  A
C648        C665   1.429       .  S
O650        C666   1.273       .  A
O650       Zn656   2.024       .  S
C651        O667   1.274       .  A
C651        O664   1.273       .  A
O652        C665   1.270       .  A
O652       Cd659   2.034       .  S
O653        C671   1.275       .  A
O653       Cd662   2.069       .  S
O654        C668   1.270       .  A
O654       Cd658   2.037       .  S
O655        C666   1.274       .  A
O655       Cd658   2.066       .  S
Zn656       O667   2.020       .  S
Zn656       O669   1.966       .  S
Zn656       O661   1.942       .  S
O657        C668   1.268       .  A
O657       Cd662   2.023       .  S
Cd658       O660   2.088       .  S
Cd658       O661   1.996       .  S
Cd659       O663   2.074       .  S
Cd659       O672   2.091       .  S
Cd659       O661   1.998       .  S
O660        C670   1.276       .  A
O661       Cd662   1.989       .  S
Cd662       O664   2.071       .  S
O663        C670   1.275       .  A
C665        O669   1.268       .  A
C671        O672   1.276       .  A
C673        C674   1.413       .  A
C673        C678   1.404       .  A
C673        F680   1.356       .  S
C674        C675   1.414       .  A
C675        C676   1.405       .  A
C675        F682   1.356       .  S
C676        C677   1.413       .  A
C676        F681   1.356       .  S
C677        C678   1.413       .  A
C678        F679   1.356       .  S
C683        C684   1.414       .  A
C683        C688   1.407       .  A
C683        F690   1.357       .  S
C684        C685   1.414       .  A
C685        C686   1.399       .  A
C685        F692   1.356       .  S
C686        C687   1.411       .  A
C686        F691   1.357       .  S
C687        C688   1.413       .  A
C688        F689   1.357       .  S
C693        C694   1.414       .  A
C693        C698   1.406       .  A
C693        F700   1.356       .  S
C694        C695   1.413       .  A
C695        C696   1.404       .  A
C695        F702   1.356       .  S
C696        C697   1.412       .  A
C696        F701   1.356       .  S
C697        C698   1.413       .  A
C698        F699   1.356       .  S
C703        C704   1.413       .  A
C703        C708   1.403       .  A
C703        F710   1.357       .  S
C704        C705   1.413       .  A
C705        C706   1.406       .  A
C705        F712   1.357       .  S
C706        C707   1.413       .  A
C706        F711   1.356       .  S
C707        C708   1.413       .  A
C708        F709   1.357       .  S
C713        C714   1.404       .  A
C713        C718   1.394       .  A
C713       F1512   1.357   1_545  S
C714        C715   1.404       .  A
C714       N1271   1.429   1_545  S
C715        C716   1.394       .  A
C715        F722   1.357       .  S
C716        C717   1.404       .  A
C716        F721   1.357       .  S
C717        C718   1.405       .  A
C718        F719   1.357       .  S
F720       C1505   1.357       .  S
C723        C724   1.403       .  A
C723        C728   1.396       .  A
C723        F730   1.357       .  S
C724       C1517   1.402   1_546  A
C724       N1248   1.428   1_545  S
C725       C1516   1.402   1_554  A
C725       C1518   1.395       .  A
C726       C1517   1.395   1_545  A
C726        C727   1.402   1_554  A
C726        F731   1.357       .  S
C727        C728   1.405       .  A
C728        F729   1.357       .  S
C733        C734   1.413       .  A
C733        C738   1.404       .  A
C733        F740   1.357       .  S
C734        C735   1.413       .  A
C735        C736   1.406       .  A
C735        F742   1.357       .  S
C736        C737   1.413       .  A
C736        F741   1.357       .  S
C737        C738   1.412       .  A
C738        F739   1.357       .  S
C743        C744   1.413       .  A
C743        C748   1.407       .  A
C743        F750   1.356       .  S
C744        C745   1.413       .  A
C745        C746   1.407       .  A
C745        F752   1.356       .  S
C746        C747   1.413       .  A
C746        F751   1.356       .  S
C747        C748   1.414       .  A
C748        F749   1.356       .  S
C753       C2338   1.403       .  A
C753        C758   1.398       .  A
C753        F760   1.357       .  S
C754       C2337   1.403       .  A
C754        C755   1.406       .  A
C755       C2340   1.396       .  A
C755        F762   1.358       .  S
C756       C2339   1.396       .  A
C756        C757   1.405       .  A
C756        F761   1.358       .  S
C757        C758   1.405       .  A
C758        F759   1.357       .  S
C763        C764   1.406       .  A
C763       C2352   1.395       .  A
C763        F770   1.357       .  S
C765        C766   1.401       .  A
C765        F772   1.357       .  S
C766        F771   1.357       .  S
C767       C2352   1.405       .  A
C767       N1994   1.437   1_455  S
C768       C2347   1.395       .  A
C768       C2351   1.405       .  A
C768        F769   1.357       .  S
C773        C774   1.414       .  A
C773        C778   1.400       .  A
C773        F780   1.356       .  S
C774        C775   1.412       .  A
C775        C776   1.406       .  A
C775        F782   1.357       .  S
C776        C777   1.413       .  A
C776        F781   1.356       .  S
C777        C778   1.411       .  A
C778        F779   1.357       .  S
C783        C784   1.411       .  A
C783        C788   1.405       .  A
C783        F790   1.356       .  S
C784        C785   1.413       .  A
C785        C786   1.407       .  A
C785        F792   1.356       .  S
C786        C787   1.414       .  A
C786        F791   1.356       .  S
C787        C788   1.414       .  A
C788        F789   1.355       .  S
C793        C795   1.543       .  S
C793        C797   1.531       .  S
C793        C796   1.534       .  S
C793       C1170   1.544       .  S
C794        C798   1.557       .  S
C794        C800   1.552       .  S
C794        C799   1.540       .  S
C794       C1183   1.549       .  S
C795        C803   1.380       .  A
C795       C1194   1.408       .  A
C796        C807   1.375       .  A
C796       C1195   1.394       .  A
C797        C811   1.377       .  A
C797       C1196   1.395       .  A
C798       C1191   1.408   1_554  A
C798        C801   1.388       .  A
C799       C1192   1.394   1_554  A
C799        C805   1.378       .  A
C800       C1193   1.395   1_554  A
C800        C808   1.386       .  A
C801        N802   1.356   1_554  A
C801        H814   1.081       .  S
N802       C1199   1.351       .  A
N802        C903   1.434       .  S
C803       N1198   1.351       .  A
C803        H804   1.083       .  S
C805       N1202   1.358   1_554  A
C805        H815   1.082       .  S
N806       C1201   1.358       .  A
N806        C807   1.358       .  A
N806       C2747   1.437       .  S
C807        H813   1.082       .  S
C808        N809   1.358   1_554  A
C808        H810   1.082       .  S
N809       C1207   1.355       .  A
N809       C1041   1.434       .  S
C811       N1205   1.355       .  A
C811        H812   1.082       .  S
C816        C818   1.556       .  S
C816        C820   1.550       .  S
C816        C819   1.536       .  S
C816       C1180   1.548       .  S
C817        C821   1.543       .  S
C817        C823   1.534       .  S
C817        C822   1.536       .  S
C817       C1173   1.543       .  S
C818        C826   1.386       .  A
C818        C821   1.405       .  A
C819        C830   1.377       .  A
C819        C822   1.395       .  A
C820        C834   1.384       .  A
C820        C823   1.397       .  A
C821        C824   1.380       .  A
C822        C828   1.376       .  A
C823        C831   1.379       .  A
C824        N825   1.353       .  A
C824        H837   1.083       .  S
N825        C826   1.355       .  A
N825        C929   1.433       .  S
C826        H827   1.080       .  S
C828        N829   1.356       .  A
C828        H838   1.082       .  S
N829        C830   1.357       .  A
N829       C1150   1.433       .  S
C830        H836   1.083       .  S
C831        N832   1.356       .  A
C831        H833   1.083       .  S
N832        C834   1.357       .  A
N832       C1066   1.434       .  S
C834        H835   1.081       .  S
C839        C841   1.547       .  S
C839        C843   1.548       .  S
C839        C842   1.527       .  S
C839       C1130   1.544       .  S
C840        C844   1.552       .  S
C840        C846   1.550       .  S
C840        C845   1.528       .  S
C840       C1140   1.551       .  S
C841        C849   1.383       .  A
C841       C1240   1.404       .  A
C842        C853   1.372       .  A
C842       C1241   1.390       .  A
C843        C857   1.384       .  A
C843       C1242   1.403       .  A
C844       C1237   1.404   1_554  A
C844        C847   1.380       .  A
C845       C1238   1.390   1_554  A
C845        C851   1.374       .  A
C846       C1239   1.403   1_554  A
C846        C854   1.380       .  A
C847       N1244   1.356   1_554  A
C847        H860   1.081       .  S
N848       C1243   1.356       .  A
N848        C849   1.355       .  A
N848        C901   1.433       .  S
C849        H850   1.081       .  S
C851       N1248   1.357   1_554  A
C851        H861   1.083       .  S
N852       C1247   1.357       .  A
N852        C853   1.354       .  A
C853        H859   1.082       .  S
C854       N1251   1.355   1_554  A
C854        H856   1.080       .  S
N855       C1250   1.355       .  A
N855        C857   1.355       .  A
N855       C1439   1.433       .  S
C857        H858   1.081       .  S
C862        C864   1.550       .  S
C862        C866   1.552       .  S
C862        C865   1.528       .  S
C862       C1143   1.549       .  S
C863        C867   1.551       .  S
C863        C869   1.549       .  S
C863        C868   1.524       .  S
C863       C1133   1.545       .  S
C864        C872   1.380       .  A
C864        C867   1.404       .  A
C865        C876   1.373       .  A
C865        C868   1.389       .  A
C866        C880   1.385       .  A
C866        C869   1.404       .  A
C867        C870   1.386       .  A
C868        C874   1.370       .  A
C869        C877   1.381       .  A
C870        N871   1.356       .  A
C870        H883   1.081       .  S
N871        C872   1.356       .  A
N871        C923   1.435       .  S
C872        H873   1.081       .  S
C874        N875   1.355       .  A
C874        H884   1.083       .  S
N875        C876   1.357       .  A
C876        H882   1.082       .  S
C877        N878   1.356       .  A
C877        H879   1.081       .  S
N878        C880   1.356       .  A
N878       C1067   1.435       .  S
C880        H881   1.081       .  S
O885        C901   1.276       .  A
O885      Zn2475   2.045       .  S
C886        O899   1.271       .  A
C886        C909   1.442       .  S
O887       C1296   1.274   1_554  A
O888        C906   1.274       .  A
O888       Cd897   2.081       .  S
O889        C903   1.273   1_554  A
O889       Cd893   2.078       .  S
O890       C1297   1.273   1_554  A
Zn891      O2469   2.045   1_455  S
Zn891       O902   1.984       .  S
Zn891       O904   2.028       .  S
O892       C2883   1.274       .  A
O892       Cd897   2.071   1_655  S
Cd893       O895   2.018       .  S
Cd893      O2876   1.990   1_554  S
Cd894       O898   2.025       .  S
Cd894       O907   2.077       .  S
Cd894      O1292   1.994   1_554  S
O895       C2489   1.269       .  A
O896      Cd2873   1.990   1_455  S
O896      Cd1290   1.994       .  S
O896       Cd897   1.987       .  S
Cd897       O899   2.019       .  S
O898        C905   1.270       .  A
C900        N940   1.432       .  S
C900       O1283   1.274       .  A
C900        O904   1.276       .  A
C901       O1286   1.273       .  A
C903       O2872   1.274       .  A
C905       O2479   1.269   1_455  A
C905        C928   1.438       .  S
C906        N993   1.436       .  S
C906       O1303   1.275       .  A
O907       C1302   1.275   1_554  A
O908        C924   1.276       .  A
O908       Zn914   2.033       .  S
C909        O922   1.269       .  A
O910        C923   1.273       .  A
O911       C2513   1.274       .  A
O911       Cd920   2.068   1_655  S
O912        C926   1.275       .  A
O912       Cd916   2.076       .  S
O913        C924   1.273       .  A
Zn914       O925   1.988       .  S
Zn914      O2511   2.053   1_455  S
O915        C926   1.272       .  A
O915       Cd920   2.070       .  S
Cd916       O918   2.026       .  S
Cd916       O919   1.995       .  S
Cd917       O921   2.021       .  S
Cd917       O930   2.079       .  S
Cd917      O2503   1.989       .  S
O918        C928   1.270       .  A
O919      Cd2501   1.989   1_455  S
O919       Cd920   1.986       .  S
Cd920       O922   2.011       .  S
O921       C2512   1.270       .  A
C923        O927   1.276       .  A
C924        N963   1.431       .  S
C926       N1016   1.433       .  S
O927      Zn2498   2.053       .  S
C928       O2505   1.270   1_455  A
C929       O2495   1.274       .  A
C929        O930   1.274       .  A
C931        C933   1.550       .  S
C931        C935   1.554       .  S
C931        C934   1.531       .  S
C931       C1093   1.549       .  S
C932        C936   1.533       .  S
C932        C938   1.545       .  S
C932        C937   1.544       .  S
C932       C1100   1.545       .  S
C933        C941   1.384       .  A
C933       C1332   1.396       .  A
C934        C945   1.372       .  A
C934       C1333   1.394       .  A
C935        C949   1.385       .  A
C935       C1334   1.408       .  A
C936       C1329   1.396   1_554  A
C936        C939   1.379       .  A
C937       C1330   1.394   1_554  A
C937        C943   1.382       .  A
C938       C1331   1.408   1_554  A
C938        C946   1.382       .  A
C939       N1336   1.356   1_554  A
C939        H952   1.082       .  S
N940       C1335   1.356       .  A
N940        C941   1.356       .  A
C941        H942   1.081       .  S
C943       N1340   1.360   1_554  A
C943        H953   1.082       .  S
N944       C1339   1.360       .  A
N944        C945   1.357       .  A
N944       C1160   1.438       .  S
C945        H951   1.082       .  S
C946       N1343   1.352   1_554  A
C946        H948   1.083       .  S
N947       C1342   1.352       .  A
N947        C949   1.354       .  A
N947       C1038   1.432       .  S
C949        H950   1.079       .  S
C954        C956   1.535       .  S
C954        C958   1.542       .  S
C954        C957   1.538       .  S
C954       C1103   1.545       .  S
C955        C959   1.548       .  S
C955        C961   1.555       .  S
C955        C960   1.533       .  S
C955       C1090   1.548       .  S
C956        C964   1.377       .  A
C956        C959   1.399       .  A
C957        C968   1.377       .  A
C957        C960   1.394       .  A
C958        C972   1.380       .  A
C958        C961   1.404       .  A
C959        C962   1.382       .  A
C960        C966   1.374       .  A
C961        C969   1.384       .  A
C962        N963   1.356       .  A
C962        H975   1.081       .  S
N963        C964   1.355       .  A
C964        H965   1.083       .  S
C966        N967   1.356       .  A
C966        H976   1.083       .  S
N967        C968   1.357       .  A
N967       C1153   1.433       .  S
C968        H974   1.082       .  S
C969        N970   1.356       .  A
C969        H971   1.081       .  S
N970        C972   1.354       .  A
N970       C1047   1.433       .  S
C972        H973   1.082       .  S
C977        C979   1.535       .  S
C977        C981   1.546       .  S
C977        C980   1.532       .  S
C977       C1080   1.544       .  S
C978        C982   1.548       .  S
C978        C984   1.555       .  S
C978        C983   1.536       .  S
C978       C1070   1.547       .  S
C979        C987   1.378       .  A
C979       C1378   1.396   1_554  A
C980        C991   1.375       .  A
C980       C1379   1.394   1_554  A
C981        C995   1.383       .  A
C981       C1380   1.408   1_554  A
C982       C1375   1.396       .  A
C982        C985   1.384       .  A
C983       C1376   1.394       .  A
C983        C989   1.374       .  A
C984       C1377   1.408       .  A
C984        C992   1.387       .  A
C985        N986   1.356       .  A
C985        H998   1.081       .  S
N986       C1383   1.356       .  A
N986       C1024   1.434       .  S
C987       N1382   1.356       .  A
C987        H988   1.082       .  S
C989        N990   1.355       .  A
C989        H999   1.083       .  S
N990       C1387   1.356       .  A
N990       C1123   1.429       .  S
C991       N1386   1.356   1_554  A
C991        H997   1.082       .  S
C992        N993   1.355       .  A
C992        H994   1.081       .  S
N993       C1391   1.353       .  A
C995       N1389   1.353   1_554  A
C995        H996   1.082       .  S
C1000      C1002   1.549       .  S
C1000      C1004   1.556       .  S
C1000      C1003   1.534       .  S
C1000      C1073   1.549       .  S
C1001      C1005   1.534       .  S
C1001      C1007   1.540       .  S
C1001      C1006   1.531       .  S
C1001      C1083   1.543       .  S
C1002      C1010   1.381       .  A
C1002      C1005   1.400       .  A
C1003      C1014   1.373       .  A
C1003      C1006   1.394       .  A
C1004      C1018   1.386       .  A
C1004      C1007   1.404       .  A
C1005      C1008   1.378       .  A
C1006      C1012   1.372       .  A
C1007      C1015   1.379       .  A
C1008      N1009   1.355       .  A
C1008      H1021   1.083       .  S
N1009      C1010   1.355       .  A
N1009      C1062   1.430       .  S
C1010      H1011   1.080       .  S
C1012      N1013   1.355       .  A
C1012      H1022   1.083       .  S
N1013      C1014   1.357       .  A
N1013      C1113   1.430       .  S
C1014      H1020   1.081       .  S
C1015      N1016   1.351       .  A
C1015      H1017   1.082       .  S
N1016      C1018   1.355       .  A
C1018      H1019   1.081       .  S
O1023      C1039   1.270       .  A
O1023     Zn1029   1.982       .  S
C1024      O1040   1.275       .  A
C1024      O1433   1.275       .  A
O1025      C1434   1.273   1_554  A
O1025     Cd1032   2.069       .  S
O1026      C1044   1.269       .  A
O1026     Cd1035   2.033       .  S
O1027      C1437   1.275       .  A
O1027     Cd1031   2.077       .  S
O1028      C1039   1.269       .  A
O1028     Cd1031   2.025       .  S
Zn1029     O1040   2.034       .  S
Zn1029     O1042   2.033       .  S
Zn1029     O1034   1.944       .  S
O1030      C1041   1.275   1_554  A
O1030     Cd1035   2.080       .  S
Cd1031     O1033   2.087       .  S
Cd1031     O1034   1.997       .  S
Cd1032     O1036   2.062       .  S
Cd1032     O1045   2.022       .  S
Cd1032     O1430   1.988   1_554  S
O1033      C1439   1.275       .  A
O1034     Cd1428   1.988       .  S
O1034     Cd1431   1.995       .  S
Cd1035     O1037   2.074       .  S
Cd1035     O1430   1.995   1_554  S
O1036      C1043   1.274   1_554  A
O1037      C1420   1.275       .  A
C1038      O1421   1.273       .  A
C1038      O1042   1.275       .  A
C1039      C1064   1.430       .  S
C1041      O1423   1.275       .  A
C1043      N1251   1.433       .  S
C1043      O1429   1.275       .  A
C1044      O1045   1.268       .  A
C1044      C1061   1.429       .  S
O1046      C1062   1.273       .  A
O1046     Zn1052   2.024       .  S
C1047      O1063   1.274       .  A
C1047      O1060   1.273       .  A
O1048      C1061   1.270       .  A
O1048     Cd1055   2.034       .  S
O1049      C1067   1.275       .  A
O1049     Cd1058   2.069       .  S
O1050      C1064   1.270       .  A
O1050     Cd1054   2.037       .  S
O1051      C1062   1.274       .  A
O1051     Cd1054   2.066       .  S
Zn1052     O1063   2.020       .  S
Zn1052     O1065   1.966       .  S
Zn1052     O1057   1.942       .  S
O1053      C1064   1.268       .  A
O1053     Cd1058   2.023       .  S
Cd1054     O1056   2.088       .  S
Cd1054     O1057   1.996       .  S
Cd1055     O1059   2.074       .  S
Cd1055     O1068   2.091       .  S
Cd1055     O1057   1.998       .  S
O1056      C1066   1.276       .  A
O1057     Cd1058   1.989       .  S
Cd1058     O1060   2.071       .  S
O1059      C1066   1.275       .  A
C1061      O1065   1.268       .  A
C1067      O1068   1.276       .  A
C1069      C1070   1.413       .  A
C1069      C1074   1.404       .  A
C1069      F1076   1.356       .  S
C1070      C1071   1.414       .  A
C1071      C1072   1.405       .  A
C1071      F1078   1.356       .  S
C1072      C1073   1.413       .  A
C1072      F1077   1.356       .  S
C1073      C1074   1.413       .  A
C1074      F1075   1.356       .  S
C1079      C1080   1.414       .  A
C1079      C1084   1.407       .  A
C1079      F1086   1.357       .  S
C1080      C1081   1.414       .  A
C1081      C1082   1.399       .  A
C1081      F1088   1.356       .  S
C1082      C1083   1.411       .  A
C1082      F1087   1.357       .  S
C1083      C1084   1.413       .  A
C1084      F1085   1.357       .  S
C1089      C1090   1.414       .  A
C1089      C1094   1.406       .  A
C1089      F1096   1.356       .  S
C1090      C1091   1.413       .  A
C1091      C1092   1.404       .  A
C1091      F1098   1.356       .  S
C1092      C1093   1.412       .  A
C1092      F1097   1.356       .  S
C1093      C1094   1.413       .  A
C1094      F1095   1.356       .  S
C1099      C1100   1.413       .  A
C1099      C1104   1.403       .  A
C1099      F1106   1.357       .  S
C1100      C1101   1.413       .  A
C1101      C1102   1.406       .  A
C1101      F1108   1.357       .  S
C1102      C1103   1.413       .  A
C1102      F1107   1.356       .  S
C1103      C1104   1.413       .  A
C1104      F1105   1.357       .  S
C1109      C1110   1.404       .  A
C1109      C1114   1.394       .  A
C1110      C1111   1.404       .  A
C1111      C1112   1.394       .  A
C1111      F1118   1.357       .  S
C1112      C1113   1.404       .  A
C1112      F1117   1.357       .  S
C1113      C1114   1.405       .  A
C1114      F1115   1.357       .  S
C1119      C1120   1.403       .  A
C1119      C1124   1.396       .  A
C1119      F1126   1.358       .  S
C1121      F1524   1.357       .  S
C1122      C1123   1.402       .  A
C1122      F1127   1.357       .  S
C1123      C1124   1.405       .  A
C1124      F1125   1.357       .  S
F1128      C1517   1.357       .  S
C1129      C1130   1.413       .  A
C1129      C1134   1.404       .  A
C1129      F1136   1.357       .  S
C1130      C1131   1.413       .  A
C1131      C1132   1.406       .  A
C1131      F1138   1.357       .  S
C1132      C1133   1.413       .  A
C1132      F1137   1.357       .  S
C1133      C1134   1.412       .  A
C1134      F1135   1.357       .  S
C1139      C1140   1.413       .  A
C1139      C1144   1.407       .  A
C1139      F1146   1.356       .  S
C1140      C1141   1.413       .  A
C1141      C1142   1.407       .  A
C1141      F1148   1.356       .  S
C1142      C1143   1.413       .  A
C1142      F1147   1.356       .  S
C1143      C1144   1.414       .  A
C1144      F1145   1.356       .  S
C1149      C2734   1.403       .  A
C1149      C1154   1.398       .  A
C1149      F1156   1.357       .  S
C1150      C2733   1.403       .  A
C1150      C1151   1.406       .  A
C1151      C2736   1.396       .  A
C1151      F1158   1.358       .  S
C1152      C2735   1.396       .  A
C1152      C1153   1.405       .  A
C1152      F1157   1.358       .  S
C1153      C1154   1.405       .  A
C1154      F1155   1.357       .  S
C1159      C1160   1.406       .  A
C1159      C2748   1.395       .  A
C1159      F1166   1.357       .  S
C1160      C1557   1.407       .  A
C1161      C1556   1.407   1_554  A
C1161      C1162   1.401       .  A
C1161      F1168   1.357       .  S
C1162      C1559   1.406   1_554  A
C1162      F1167   1.357       .  S
C1163      C1558   1.406       .  A
C1163      C2748   1.405       .  A
C1163      N2390   1.437   1_455  S
C1164      C2743   1.395       .  A
C1164      C2747   1.405       .  A
C1164      F1165   1.357       .  S
C1169      C1170   1.414       .  A
C1169      C1174   1.400       .  A
C1169      F1176   1.356       .  S
C1170      C1171   1.412       .  A
C1171      C1172   1.406       .  A
C1171      F1178   1.357       .  S
C1172      C1173   1.413       .  A
C1172      F1177   1.356       .  S
C1173      C1174   1.411       .  A
C1174      F1175   1.357       .  S
C1179      C1180   1.411       .  A
C1179      C1184   1.405       .  A
C1179      F1186   1.356       .  S
C1180      C1181   1.413       .  A
C1181      C1182   1.407       .  A
C1181      F1188   1.356       .  S
C1182      C1183   1.414       .  A
C1182      F1187   1.356       .  S
C1183      C1184   1.414       .  A
C1184      F1185   1.355       .  S
C1189      C1191   1.543       .  S
C1189      C1193   1.531       .  S
C1189      C1192   1.534       .  S
C1189      C1566   1.544       .  S
C1190      C1194   1.557       .  S
C1190      C1196   1.552       .  S
C1190      C1195   1.540       .  S
C1190      C1579   1.549       .  S
C1191      C1199   1.380       .  A
C1192      C1203   1.375       .  A
C1193      C1207   1.377       .  A
C1194      C1197   1.388       .  A
C1195      C1201   1.378       .  A
C1196      C1204   1.386       .  A
C1197      N1198   1.356       .  A
C1197      H1210   1.081       .  S
N1198      C1299   1.434       .  S
C1199      H1200   1.083       .  S
C1201      H1211   1.082       .  S
N1202      C1203   1.358       .  A
N1202      C3143   1.437       .  S
C1203      H1209   1.082       .  S
C1204      N1205   1.358       .  A
C1204      H1206   1.082       .  S
N1205      C1437   1.434       .  S
C1207      H1208   1.082       .  S
C1212      C1214   1.556       .  S
C1212      C1216   1.550       .  S
C1212      C1215   1.536       .  S
C1212      C1576   1.548       .  S
C1213      C1217   1.543       .  S
C1213      C1219   1.534       .  S
C1213      C1218   1.536       .  S
C1213      C1569   1.543       .  S
C1214      C1222   1.386       .  A
C1214      C1217   1.405       .  A
C1215      C1226   1.377       .  A
C1215      C1218   1.395       .  A
C1216      C1230   1.384       .  A
C1216      C1219   1.397       .  A
C1217      C1220   1.380       .  A
C1218      C1224   1.376       .  A
C1219      C1227   1.379       .  A
C1220      N1221   1.353       .  A
C1220      H1233   1.083       .  S
N1221      C1222   1.355       .  A
N1221      C1325   1.433       .  S
C1222      H1223   1.080       .  S
C1224      N1225   1.356       .  A
C1224      H1234   1.082       .  S
N1225      C1226   1.357       .  A
N1225      C1546   1.433       .  S
C1226      H1232   1.083       .  S
C1227      N1228   1.356       .  A
C1227      H1229   1.083       .  S
N1228      C1230   1.357       .  A
N1228      C1462   1.434       .  S
C1230      H1231   1.081       .  S
C1235      C1237   1.547       .  S
C1235      C1239   1.548       .  S
C1235      C1238   1.527       .  S
C1235      C1526   1.544       .  S
C1236      C1240   1.552       .  S
C1236      C1242   1.550       .  S
C1236      C1241   1.528       .  S
C1236      C1536   1.551       .  S
C1237      C1245   1.383       .  A
C1238      C1249   1.372       .  A
C1239      C1253   1.384       .  A
C1240      C1243   1.380       .  A
C1241      C1247   1.374       .  A
C1242      C1250   1.380       .  A
C1243      H1256   1.081       .  S
N1244      C1245   1.355       .  A
N1244      C1297   1.433       .  S
C1245      H1246   1.081       .  S
C1247      H1257   1.083       .  S
N1248      C1249   1.354       .  A
C1249      H1255   1.082       .  S
C1250      H1252   1.080       .  S
N1251      C1253   1.355       .  A
C1253      H1254   1.081       .  S
C1258      C1260   1.550       .  S
C1258      C1262   1.552       .  S
C1258      C1261   1.528       .  S
C1258      C1539   1.549       .  S
C1259      C1263   1.551       .  S
C1259      C1265   1.549       .  S
C1259      C1264   1.524       .  S
C1259      C1529   1.545       .  S
C1260      C1268   1.380       .  A
C1260      C1263   1.404       .  A
C1261      C1272   1.373       .  A
C1261      C1264   1.389       .  A
C1262      C1276   1.385       .  A
C1262      C1265   1.404       .  A
C1263      C1266   1.386       .  A
C1264      C1270   1.370       .  A
C1265      C1273   1.381       .  A
C1266      N1267   1.356       .  A
C1266      H1279   1.081       .  S
N1267      C1268   1.356       .  A
N1267      C1319   1.435       .  S
C1268      H1269   1.081       .  S
C1270      N1271   1.355       .  A
C1270      H1280   1.083       .  S
N1271      C1272   1.357       .  A
C1272      H1278   1.082       .  S
C1273      N1274   1.356       .  A
C1273      H1275   1.081       .  S
N1274      C1276   1.356       .  A
N1274      C1463   1.435       .  S
C1276      H1277   1.081       .  S
O1281      C1297   1.276       .  A
O1281     Zn2871   2.045       .  S
C1282      O1295   1.271       .  A
C1282      C1305   1.442       .  S
O1284      C1302   1.274       .  A
O1284     Cd1293   2.081       .  S
O1285      C1299   1.273       .  A
O1285     Cd1289   2.078       .  S
Zn1287     O2865   2.045   1_455  S
Zn1287     O1298   1.984       .  S
Zn1287     O1300   2.028       .  S
O1288      C2487   1.274       .  A
O1288     Cd1293   2.071   1_655  S
Cd1289     O1291   2.018       .  S
Cd1289     O2480   1.990       .  S
Cd1290     O1294   2.025       .  S
Cd1290     O1303   2.077       .  S
O1291      C2885   1.269       .  A
O1292     Cd2477   1.990   1_456  S
O1292     Cd1293   1.987       .  S
Cd1293     O1295   2.019       .  S
O1294      C1301   1.270       .  A
C1296      N1336   1.432       .  S
C1296      O1300   1.276       .  A
C1299      O2476   1.274       .  A
C1301      O2875   1.269   1_455  A
C1301      C1324   1.438       .  S
C1302      N1389   1.436       .  S
O1304      C1320   1.276       .  A
O1304     Zn1310   2.033       .  S
C1305      O1318   1.269       .  A
O1306      C1319   1.273       .  A
O1307      C2909   1.274       .  A
O1307     Cd1316   2.068   1_655  S
O1308      C1322   1.275       .  A
O1308     Cd1312   2.076       .  S
O1309      C1320   1.273       .  A
Zn1310     O1321   1.988       .  S
Zn1310     O2907   2.053   1_455  S
O1311      C1322   1.272       .  A
O1311     Cd1316   2.070       .  S
Cd1312     O1314   2.026       .  S
Cd1312     O1315   1.995       .  S
Cd1313     O1317   2.021       .  S
Cd1313     O1326   2.079       .  S
Cd1313     O2899   1.989       .  S
O1314      C1324   1.270       .  A
O1315     Cd2897   1.989   1_455  S
O1315     Cd1316   1.986       .  S
Cd1316     O1318   2.011       .  S
O1317      C2908   1.270       .  A
C1319      O1323   1.276       .  A
C1320      N1359   1.431       .  S
C1322      N1412   1.433       .  S
O1323     Zn2894   2.053       .  S
C1324      O2901   1.270   1_455  A
C1325      O2891   1.274       .  A
C1325      O1326   1.274       .  A
C1327      C1329   1.550       .  S
C1327      C1331   1.554       .  S
C1327      C1330   1.531       .  S
C1327      C1489   1.549       .  S
C1328      C1332   1.533       .  S
C1328      C1334   1.545       .  S
C1328      C1333   1.544       .  S
C1328      C1496   1.545       .  S
C1329      C1337   1.384       .  A
C1330      C1341   1.372       .  A
C1331      C1345   1.385       .  A
C1332      C1335   1.379       .  A
C1333      C1339   1.382       .  A
C1334      C1342   1.382       .  A
C1335      H1348   1.082       .  S
N1336      C1337   1.356       .  A
C1337      H1338   1.081       .  S
C1339      H1349   1.082       .  S
N1340      C1341   1.357       .  A
N1340      C1556   1.438       .  S
C1341      H1347   1.082       .  S
C1342      H1344   1.083       .  S
N1343      C1345   1.354       .  A
N1343      C1434   1.432       .  S
C1345      H1346   1.079       .  S
C1350      C1352   1.535       .  S
C1350      C1354   1.542       .  S
C1350      C1353   1.538       .  S
C1350      C1499   1.545       .  S
C1351      C1355   1.548       .  S
C1351      C1357   1.555       .  S
C1351      C1356   1.533       .  S
C1351      C1486   1.548       .  S
C1352      C1360   1.377       .  A
C1352      C1355   1.399       .  A
C1353      C1364   1.377       .  A
C1353      C1356   1.394       .  A
C1354      C1368   1.380       .  A
C1354      C1357   1.404       .  A
C1355      C1358   1.382       .  A
C1356      C1362   1.374       .  A
C1357      C1365   1.384       .  A
C1358      N1359   1.356       .  A
C1358      H1371   1.081       .  S
N1359      C1360   1.355       .  A
C1360      H1361   1.083       .  S
C1362      N1363   1.356       .  A
C1362      H1372   1.083       .  S
N1363      C1364   1.357       .  A
N1363      C1549   1.433       .  S
C1364      H1370   1.082       .  S
C1365      N1366   1.356       .  A
C1365      H1367   1.081       .  S
N1366      C1368   1.354       .  A
N1366      C1443   1.433       .  S
C1368      H1369   1.082       .  S
C1373      C1375   1.536       .  S
C1373      C1377   1.546       .  S
C1373      C1376   1.532       .  S
C1373      C1476   1.544       .  S
C1374      C1378   1.548       .  S
C1374      C1380   1.555       .  S
C1374      C1379   1.536       .  S
C1374      C1466   1.547       .  S
C1375      C1383   1.378       .  A
C1376      C1387   1.375       .  A
C1377      C1391   1.383       .  A
C1378      C1381   1.384       .  A
C1379      C1385   1.374       .  A
C1380      C1388   1.387       .  A
C1381      N1382   1.356   1_556  A
C1381      H1394   1.081       .  S
N1382      C1420   1.434       .  S
C1383      H1384   1.082       .  S
C1385      N1386   1.355       .  A
C1385      H1395   1.083       .  S
N1386      C1519   1.429       .  S
C1387      H1393   1.082       .  S
C1388      N1389   1.355       .  A
C1388      H1390   1.081       .  S
C1391      H1392   1.082       .  S
C1396      C1398   1.549       .  S
C1396      C1400   1.556       .  S
C1396      C1399   1.534       .  S
C1396      C1469   1.549       .  S
C1397      C1401   1.534       .  S
C1397      C1403   1.540       .  S
C1397      C1402   1.531       .  S
C1397      C1479   1.543       .  S
C1398      C1406   1.381       .  A
C1398      C1401   1.400       .  A
C1399      C1410   1.373       .  A
C1399      C1402   1.394       .  A
C1400      C1414   1.386       .  A
C1400      C1403   1.404       .  A
C1401      C1404   1.378       .  A
C1402      C1408   1.372       .  A
C1403      C1411   1.379       .  A
C1404      N1405   1.355       .  A
C1404      H1417   1.083       .  S
N1405      C1406   1.355       .  A
N1405      C1458   1.430       .  S
C1406      H1407   1.080       .  S
C1408      N1409   1.355       .  A
C1408      H1418   1.083       .  S
N1409      C1410   1.357       .  A
N1409      C1509   1.430       .  S
C1410      H1416   1.081       .  S
C1411      N1412   1.351       .  A
C1411      H1413   1.082       .  S
N1412      C1414   1.355       .  A
C1414      H1415   1.081       .  S
O1419      C1435   1.270       .  A
O1419     Zn1425   1.982       .  S
C1420      O1436   1.275   1_554  A
O1421     Cd1428   2.069       .  S
O1422      C1440   1.269       .  A
O1422     Cd1431   2.033       .  S
O1423     Cd1427   2.077       .  S
O1424      C1435   1.269       .  A
O1424     Cd1427   2.025       .  S
Zn1425     O1436   2.034       .  S
Zn1425     O1438   2.033       .  S
Zn1425     O1430   1.944       .  S
O1426      C1437   1.275       .  A
O1426     Cd1431   2.080       .  S
Cd1427     O1429   2.087       .  S
Cd1427     O1430   1.997       .  S
Cd1428     O1432   2.062       .  S
Cd1428     O1441   2.022       .  S
Cd1431     O1433   2.074       .  S
O1432      C1439   1.274       .  A
C1434      O1438   1.275       .  A
C1435      C1460   1.430       .  S
C1440      O1441   1.268       .  A
C1440      C1457   1.429       .  S
O1442      C1458   1.273       .  A
O1442     Zn1448   2.024       .  S
C1443      O1459   1.274       .  A
C1443      O1456   1.273       .  A
O1444      C1457   1.270       .  A
O1444     Cd1451   2.034       .  S
O1445      C1463   1.275       .  A
O1445     Cd1454   2.069       .  S
O1446      C1460   1.270       .  A
O1446     Cd1450   2.037       .  S
O1447      C1458   1.274       .  A
O1447     Cd1450   2.066       .  S
Zn1448     O1459   2.020       .  S
Zn1448     O1461   1.966       .  S
Zn1448     O1453   1.942       .  S
O1449      C1460   1.268       .  A
O1449     Cd1454   2.023       .  S
Cd1450     O1452   2.088       .  S
Cd1450     O1453   1.996       .  S
Cd1451     O1455   2.074       .  S
Cd1451     O1464   2.091       .  S
Cd1451     O1453   1.998       .  S
O1452      C1462   1.276       .  A
O1453     Cd1454   1.989       .  S
Cd1454     O1456   2.071       .  S
O1455      C1462   1.275       .  A
C1457      O1461   1.268       .  A
C1463      O1464   1.276       .  A
C1465      C1466   1.413       .  A
C1465      C1470   1.404       .  A
C1465      F1472   1.356       .  S
C1466      C1467   1.414       .  A
C1467      C1468   1.405       .  A
C1467      F1474   1.356       .  S
C1468      C1469   1.413       .  A
C1468      F1473   1.356       .  S
C1469      C1470   1.413       .  A
C1470      F1471   1.356       .  S
C1475      C1476   1.414       .  A
C1475      C1480   1.407       .  A
C1475      F1482   1.357       .  S
C1476      C1477   1.414       .  A
C1477      C1478   1.399       .  A
C1477      F1484   1.356       .  S
C1478      C1479   1.411       .  A
C1478      F1483   1.357       .  S
C1479      C1480   1.413       .  A
C1480      F1481   1.357       .  S
C1485      C1486   1.414       .  A
C1485      C1490   1.406       .  A
C1485      F1492   1.356       .  S
C1486      C1487   1.413       .  A
C1487      C1488   1.404       .  A
C1487      F1494   1.356       .  S
C1488      C1489   1.412       .  A
C1488      F1493   1.356       .  S
C1489      C1490   1.413       .  A
C1490      F1491   1.356       .  S
C1495      C1496   1.413       .  A
C1495      C1500   1.403       .  A
C1495      F1502   1.357       .  S
C1496      C1497   1.413       .  A
C1497      C1498   1.406       .  A
C1497      F1504   1.357       .  S
C1498      C1499   1.413       .  A
C1498      F1503   1.356       .  S
C1499      C1500   1.413       .  A
C1500      F1501   1.357       .  S
C1505      C1506   1.404       .  A
C1505      C1510   1.394       .  A
C1506      C1507   1.404       .  A
C1507      C1508   1.394       .  A
C1507      F1514   1.357       .  S
C1508      C1509   1.404       .  A
C1508      F1513   1.357       .  S
C1509      C1510   1.405       .  A
C1510      F1511   1.357       .  S
C1515      C1516   1.403       .  A
C1515      C1520   1.396       .  A
C1515      F1522   1.358       .  S
C1518      C1519   1.402   1_554  A
C1518      F1523   1.357       .  S
C1519      C1520   1.405       .  A
C1520      F1521   1.357       .  S
C1525      C1526   1.413       .  A
C1525      C1530   1.404       .  A
C1525      F1532   1.357       .  S
C1526      C1527   1.413       .  A
C1527      C1528   1.406       .  A
C1527      F1534   1.357       .  S
C1528      C1529   1.413       .  A
C1528      F1533   1.357       .  S
C1529      C1530   1.412       .  A
C1530      F1531   1.357       .  S
C1535      C1536   1.413       .  A
C1535      C1540   1.407       .  A
C1535      F1542   1.356       .  S
C1536      C1537   1.413       .  A
C1537      C1538   1.407       .  A
C1537      F1544   1.356       .  S
C1538      C1539   1.413       .  A
C1538      F1543   1.356       .  S
C1539      C1540   1.414       .  A
C1540      F1541   1.356       .  S
C1545      C3130   1.403       .  A
C1545      C1550   1.398       .  A
C1545      F1552   1.357       .  S
C1546      C3129   1.403       .  A
C1546      C1547   1.406       .  A
C1547      C3132   1.396       .  A
C1547      F1554   1.358       .  S
C1548      C3131   1.396       .  A
C1548      C1549   1.405       .  A
C1548      F1553   1.358       .  S
C1549      C1550   1.405       .  A
C1550      F1551   1.357       .  S
C1555      C1556   1.406       .  A
C1555      C3144   1.395       .  A
C1555      F1562   1.357       .  S
C1557      C1558   1.401       .  A
C1557      F1564   1.357       .  S
C1558      F1563   1.357       .  S
C1559      C3144   1.405       .  A
C1559      N2786   1.437   1_455  S
C1560      C3139   1.395       .  A
C1560      C3143   1.405       .  A
C1560      F1561   1.357       .  S
C1565      C1566   1.414       .  A
C1565      C1570   1.400       .  A
C1565      F1572   1.356       .  S
C1566      C1567   1.412       .  A
C1567      C1568   1.406       .  A
C1567      F1574   1.357       .  S
C1568      C1569   1.413       .  A
C1568      F1573   1.356       .  S
C1569      C1570   1.411       .  A
C1570      F1571   1.357       .  S
C1575      C1576   1.411       .  A
C1575      C1580   1.405       .  A
C1575      F1582   1.356       .  S
C1576      C1577   1.413       .  A
C1577      C1578   1.407       .  A
C1577      F1584   1.356       .  S
C1578      C1579   1.414       .  A
C1578      F1583   1.356       .  S
C1579      C1580   1.414       .  A
C1580      F1581   1.355       .  S
C1585      C1587   1.543       .  S
C1585      C1589   1.531       .  S
C1585      C1588   1.534       .  S
C1585      C1962   1.544       .  S
C1586      C1590   1.557       .  S
C1586      C1592   1.552       .  S
C1586      C1591   1.540       .  S
C1586      C1975   1.549       .  S
C1587      C1595   1.380       .  A
C1587      C1986   1.408       .  A
C1588      C1599   1.375       .  A
C1588      C1987   1.394       .  A
C1589      C1603   1.377       .  A
C1589      C1988   1.395       .  A
C1590      C1983   1.408   1_554  A
C1590      C1593   1.388       .  A
C1591      C1984   1.394   1_554  A
C1591      C1597   1.378       .  A
C1592      C1985   1.395   1_554  A
C1592      C1600   1.386       .  A
C1593      N1594   1.356   1_554  A
C1593      H1606   1.081       .  S
N1594      C1991   1.351       .  A
N1594      C1695   1.434       .  S
C1595      N1990   1.351       .  A
C1595      H1596   1.083       .  S
C1597      N1994   1.358   1_554  A
C1597      H1607   1.082       .  S
N1598      C1993   1.358       .  A
N1598      C1599   1.358       .  A
C1599      H1605   1.082       .  S
C1600      N1601   1.358   1_554  A
C1600      H1602   1.082       .  S
N1601      C1999   1.355       .  A
N1601      C1833   1.434       .  S
C1603      N1997   1.355       .  A
C1603      H1604   1.082       .  S
C1608      C1610   1.556       .  S
C1608      C1612   1.550       .  S
C1608      C1611   1.536       .  S
C1608      C1972   1.548       .  S
C1609      C1613   1.543       .  S
C1609      C1615   1.534       .  S
C1609      C1614   1.536       .  S
C1609      C1965   1.543       .  S
C1610      C1618   1.386       .  A
C1610      C1613   1.405       .  A
C1611      C1622   1.377       .  A
C1611      C1614   1.395       .  A
C1612      C1626   1.384       .  A
C1612      C1615   1.397       .  A
C1613      C1616   1.380       .  A
C1614      C1620   1.376       .  A
C1615      C1623   1.379       .  A
C1616      N1617   1.353       .  A
C1616      H1629   1.083       .  S
N1617      C1618   1.355       .  A
N1617      C1721   1.433       .  S
C1618      H1619   1.080       .  S
C1620      N1621   1.356       .  A
C1620      H1630   1.082       .  S
N1621      C1622   1.357       .  A
N1621      C1942   1.433   1_655  S
C1622      H1628   1.083       .  S
C1623      N1624   1.356       .  A
C1623      H1625   1.083       .  S
N1624      C1626   1.357       .  A
N1624      C1858   1.434       .  S
C1626      H1627   1.081       .  S
C1631      C1633   1.547       .  S
C1631      C1635   1.548       .  S
C1631      C1634   1.527       .  S
C1631      C1922   1.544       .  S
C1632      C1636   1.552       .  S
C1632      C1638   1.550       .  S
C1632      C1637   1.528       .  S
C1632      C1932   1.551       .  S
C1633      C1641   1.383       .  A
C1633      C2032   1.404       .  A
C1634      C1645   1.372       .  A
C1634      C2033   1.390       .  A
C1635      C1649   1.384       .  A
C1635      C2034   1.403       .  A
C1636      C2029   1.404   1_554  A
C1636      C1639   1.380       .  A
C1637      C2030   1.390   1_554  A
C1637      C1643   1.374       .  A
C1638      C2031   1.403   1_554  A
C1638      C1646   1.380       .  A
C1639      N2036   1.356   1_554  A
C1639      H1652   1.081       .  S
N1640      C2035   1.356       .  A
N1640      C1641   1.355       .  A
N1640      C1693   1.433       .  S
C1641      H1642   1.081       .  S
C1643      N2040   1.357   1_554  A
C1643      H1653   1.083       .  S
N1644      C2039   1.357       .  A
N1644      C1645   1.354       .  A
N1644      C2704   1.428       .  S
C1645      H1651   1.082       .  S
C1646      N2043   1.355   1_554  A
C1646      H1648   1.080       .  S
N1647      C2042   1.355       .  A
N1647      C1649   1.355       .  A
N1647      C2231   1.433       .  S
C1649      H1650   1.081       .  S
C1654      C1656   1.550       .  S
C1654      C1658   1.552       .  S
C1654      C1657   1.528       .  S
C1654      C1935   1.549       .  S
C1655      C1659   1.551       .  S
C1655      C1661   1.549       .  S
C1655      C1660   1.524       .  S
C1655      C1925   1.545       .  S
C1656      C1664   1.380       .  A
C1656      C1659   1.404       .  A
C1657      C1668   1.373       .  A
C1657      C1660   1.389       .  A
C1658      C1672   1.385       .  A
C1658      C1661   1.404       .  A
C1659      C1662   1.386       .  A
C1660      C1666   1.370       .  A
C1661      C1669   1.381       .  A
C1662      N1663   1.356       .  A
C1662      H1675   1.081       .  S
N1663      C1664   1.356       .  A
N1663      C1715   1.435       .  S
C1664      H1665   1.081       .  S
C1666      N1667   1.355       .  A
C1666      H1676   1.083       .  S
N1667      C1668   1.357       .  A
N1667      C2694   1.429       .  S
C1668      H1674   1.082       .  S
C1669      N1670   1.356       .  A
C1669      H1671   1.081       .  S
N1670      C1672   1.356       .  A
N1670      C1859   1.435       .  S
C1672      H1673   1.081       .  S
O1677      C1693   1.276       .  A
C1678      O2486   1.271   1_545  A
C1678      O1691   1.271       .  A
C1678      C1701   1.442       .  S
O1679      C2088   1.274   1_554  A
O1679     Cd2478   2.076       .  S
O1680      C1698   1.274       .  A
O1680     Cd1689   2.081       .  S
O1681      C1695   1.273   1_554  A
O1681     Cd1685   2.078       .  S
O1682      C2089   1.273   1_554  A
O1682     Cd2477   2.057       .  S
Zn1683     O1694   1.984       .  S
Zn1683     O1696   2.028       .  S
Zn1683     O2480   1.949       .  S
O1684     Cd1689   2.071       .  S
Cd1685     O2474   2.057   1_545  S
Cd1685     O1687   2.018       .  S
Cd1686     O2471   2.076   1_545  S
Cd1686     O1690   2.025       .  S
Cd1686     O1699   2.077       .  S
Cd1686     O2084   1.994   1_554  S
O1688     Zn2475   1.949   1_545  S
O1688     Cd2082   1.994       .  S
O1688     Cd1689   1.987       .  S
Cd1689     O1691   2.019       .  S
O1690      C1697   1.270       .  A
C1692      N1732   1.432       .  S
C1692      O2075   1.274       .  A
C1692      O1696   1.276       .  A
C1693      O2078   1.273       .  A
O1694      C2470   1.271       .  A
C1697      C1720   1.438       .  S
C1698      N1785   1.436       .  S
C1698      O2095   1.275       .  A
O1699      C2094   1.275   1_554  A
O1700      C1716   1.276       .  A
O1700     Zn1706   2.033       .  S
C1701      O2509   1.272   1_545  A
C1701      O1714   1.269       .  A
O1702      C1715   1.273       .  A
O1702     Cd2501   2.060       .  S
O1703     Cd1712   2.068       .  S
O1704      C1718   1.275       .  A
O1704     Cd1708   2.076       .  S
O1705      C1716   1.273       .  A
O1705     Cd2500   2.070       .  S
Zn1706     O1717   1.988       .  S
Zn1706     O2503   1.949       .  S
O1707      C1718   1.272       .  A
O1707     Cd1712   2.070       .  S
Cd1708     O2497   2.070   1_545  S
Cd1708     O1710   2.026       .  S
Cd1708     O1711   1.995       .  S
Cd1709     O2494   2.060   1_545  S
Cd1709     O1713   2.021       .  S
Cd1709     O1722   2.079       .  S
O1710      C1720   1.270       .  A
O1711     Zn2498   1.949   1_545  S
O1711     Cd1712   1.986       .  S
Cd1712     O1714   2.011       .  S
C1715      O1719   1.276       .  A
C1716      N1755   1.431       .  S
O1717      C2493   1.272       .  A
C1718      N1808   1.433       .  S
C1721      O1722   1.274       .  A
C1723      C1725   1.550       .  S
C1723      C1727   1.554       .  S
C1723      C1726   1.531       .  S
C1723      C1885   1.549       .  S
C1724      C1728   1.533       .  S
C1724      C1730   1.545       .  S
C1724      C1729   1.544       .  S
C1724      C1892   1.545       .  S
C1725      C1733   1.384       .  A
C1725      C2124   1.396       .  A
C1726      C1737   1.372       .  A
C1726      C2125   1.394       .  A
C1727      C1741   1.385       .  A
C1727      C2126   1.408       .  A
C1728      C2121   1.396   1_554  A
C1728      C1731   1.379       .  A
C1729      C2122   1.394   1_554  A
C1729      C1735   1.382       .  A
C1730      C2123   1.408   1_554  A
C1730      C1738   1.382       .  A
C1731      N2128   1.356   1_554  A
C1731      H1744   1.082       .  S
N1732      C2127   1.356       .  A
N1732      C1733   1.356       .  A
C1733      H1734   1.081       .  S
C1735      N2132   1.360   1_554  A
C1735      H1745   1.082       .  S
N1736      C2131   1.360       .  A
N1736      C1737   1.357       .  A
N1736      C1952   1.438       .  S
C1737      H1743   1.082       .  S
C1738      N2135   1.352   1_554  A
C1738      H1740   1.083       .  S
N1739      C2134   1.352       .  A
N1739      C1741   1.354       .  A
N1739      C1830   1.432       .  S
C1741      H1742   1.079       .  S
C1746      C1748   1.535       .  S
C1746      C1750   1.542       .  S
C1746      C1749   1.538       .  S
C1746      C1895   1.545       .  S
C1747      C1751   1.548       .  S
C1747      C1753   1.555       .  S
C1747      C1752   1.533       .  S
C1747      C1882   1.548       .  S
C1748      C1756   1.377       .  A
C1748      C1751   1.399       .  A
C1749      C1760   1.377       .  A
C1749      C1752   1.394       .  A
C1750      C1764   1.380       .  A
C1750      C1753   1.404       .  A
C1751      C1754   1.382       .  A
C1752      C1758   1.374       .  A
C1753      C1761   1.384       .  A
C1754      N1755   1.356       .  A
C1754      H1767   1.081       .  S
N1755      C1756   1.355       .  A
C1756      H1757   1.083       .  S
C1758      N1759   1.356       .  A
C1758      H1768   1.083       .  S
N1759      C1760   1.357       .  A
N1759      C1945   1.433       .  S
C1760      H1766   1.082       .  S
C1761      N1762   1.356       .  A
C1761      H1763   1.081       .  S
N1762      C1764   1.354       .  A
N1762      C1839   1.433       .  S
C1764      H1765   1.082       .  S
C1769      C1771   1.535       .  S
C1769      C1773   1.546       .  S
C1769      C1772   1.532       .  S
C1769      C1872   1.544       .  S
C1770      C1774   1.548       .  S
C1770      C1776   1.555       .  S
C1770      C1775   1.536       .  S
C1770      C1862   1.547       .  S
C1771      C1779   1.378       .  A
C1771      C2170   1.396   1_554  A
C1772      C1783   1.375       .  A
C1772      C2171   1.394   1_554  A
C1773      C1787   1.383       .  A
C1773      C2172   1.408   1_554  A
C1774      C2167   1.396       .  A
C1774      C1777   1.384       .  A
C1775      C2168   1.394       .  A
C1775      C1781   1.374       .  A
C1776      C2169   1.408       .  A
C1776      C1784   1.387       .  A
C1777      N1778   1.356       .  A
C1777      H1790   1.081       .  S
N1778      C2175   1.356       .  A
N1778      C1816   1.434       .  S
C1779      N2174   1.356       .  A
C1779      H1780   1.082       .  S
C1781      N1782   1.355       .  A
C1781      H1791   1.083       .  S
N1782      C2179   1.356       .  A
N1782      C1915   1.429       .  S
C1783      N2178   1.356   1_554  A
C1783      H1789   1.082       .  S
C1784      N1785   1.355       .  A
C1784      H1786   1.081       .  S
N1785      C2183   1.353       .  A
C1787      N2181   1.353   1_554  A
C1787      H1788   1.082       .  S
C1792      C1794   1.549       .  S
C1792      C1796   1.556       .  S
C1792      C1795   1.534       .  S
C1792      C1865   1.549       .  S
C1793      C1797   1.534       .  S
C1793      C1799   1.540       .  S
C1793      C1798   1.531       .  S
C1793      C1875   1.543       .  S
C1794      C1802   1.381       .  A
C1794      C1797   1.400       .  A
C1795      C1806   1.373       .  A
C1795      C1798   1.394       .  A
C1796      C1810   1.386       .  A
C1796      C1799   1.404       .  A
C1797      C1800   1.378       .  A
C1798      C1804   1.372       .  A
C1799      C1807   1.379       .  A
C1800      N1801   1.355       .  A
C1800      H1813   1.083       .  S
N1801      C1802   1.355       .  A
N1801      C1854   1.430       .  S
C1802      H1803   1.080       .  S
C1804      N1805   1.355       .  A
C1804      H1814   1.083       .  S
N1805      C1806   1.357       .  A
N1805      C1905   1.430       .  S
C1806      H1812   1.081       .  S
C1807      N1808   1.351       .  A
C1807      H1809   1.082       .  S
N1808      C1810   1.355       .  A
C1810      H1811   1.081       .  S
O1815      C1831   1.270       .  A
O1815     Zn1821   1.982       .  S
C1816      O1832   1.275       .  A
C1816      O2225   1.275       .  A
O1817      C2226   1.273   1_554  A
O1817     Cd1824   2.069       .  S
O1818      C1836   1.269       .  A
O1818     Cd1827   2.033       .  S
O1819      C2229   1.275       .  A
O1819     Cd1823   2.077       .  S
O1820      C1831   1.269       .  A
O1820     Cd1823   2.025       .  S
Zn1821     O1832   2.034       .  S
Zn1821     O1834   2.033       .  S
Zn1821     O1826   1.944       .  S
O1822      C1833   1.275   1_554  A
O1822     Cd1827   2.080       .  S
Cd1823     O1825   2.087       .  S
Cd1823     O1826   1.997       .  S
Cd1824     O1828   2.062       .  S
Cd1824     O1837   2.022       .  S
Cd1824     O2222   1.988   1_554  S
O1825      C2231   1.275       .  A
O1826     Cd2220   1.988       .  S
O1826     Cd2223   1.995       .  S
Cd1827     O1829   2.074       .  S
Cd1827     O2222   1.995   1_554  S
O1828      C1835   1.274   1_554  A
O1829      C2212   1.275       .  A
C1830      O2213   1.273       .  A
C1830      O1834   1.275       .  A
C1831      C1856   1.430       .  S
C1833      O2215   1.275       .  A
C1835      N2043   1.433       .  S
C1835      O2221   1.275       .  A
C1836      O1837   1.268       .  A
C1836      C1853   1.429       .  S
O1838      C1854   1.273       .  A
O1838     Zn1844   2.024       .  S
C1839      O1855   1.274       .  A
C1839      O1852   1.273       .  A
O1840      C1853   1.270       .  A
O1840     Cd1847   2.034       .  S
O1841      C1859   1.275       .  A
O1841     Cd1850   2.069       .  S
O1842      C1856   1.270       .  A
O1842     Cd1846   2.037       .  S
O1843      C1854   1.274       .  A
O1843     Cd1846   2.066       .  S
Zn1844     O1855   2.020       .  S
Zn1844     O1857   1.966       .  S
Zn1844     O1849   1.942       .  S
O1845      C1856   1.268       .  A
O1845     Cd1850   2.023       .  S
Cd1846     O1848   2.088       .  S
Cd1846     O1849   1.996       .  S
Cd1847     O1851   2.074       .  S
Cd1847     O1860   2.091       .  S
Cd1847     O1849   1.998       .  S
O1848      C1858   1.276       .  A
O1849     Cd1850   1.989       .  S
Cd1850     O1852   2.071       .  S
O1851      C1858   1.275       .  A
C1853      O1857   1.268       .  A
C1859      O1860   1.276       .  A
C1861      C1862   1.413       .  A
C1861      C1866   1.404       .  A
C1861      F1868   1.356       .  S
C1862      C1863   1.414       .  A
C1863      C1864   1.405       .  A
C1863      F1870   1.356       .  S
C1864      C1865   1.413       .  A
C1864      F1869   1.356       .  S
C1865      C1866   1.413       .  A
C1866      F1867   1.356       .  S
C1871      C1872   1.414       .  A
C1871      C1876   1.407       .  A
C1871      F1878   1.357       .  S
C1872      C1873   1.414       .  A
C1873      C1874   1.399       .  A
C1873      F1880   1.356       .  S
C1874      C1875   1.411       .  A
C1874      F1879   1.357       .  S
C1875      C1876   1.413       .  A
C1876      F1877   1.357       .  S
C1881      C1882   1.414       .  A
C1881      C1886   1.406       .  A
C1881      F1888   1.356       .  S
C1882      C1883   1.413       .  A
C1883      C1884   1.404       .  A
C1883      F1890   1.356       .  S
C1884      C1885   1.412       .  A
C1884      F1889   1.356       .  S
C1885      C1886   1.413       .  A
C1886      F1887   1.356       .  S
C1891      C1892   1.413       .  A
C1891      C1896   1.403       .  A
C1891      F1898   1.357       .  S
C1892      C1893   1.413       .  A
C1893      C1894   1.406       .  A
C1893      F1900   1.357       .  S
C1894      C1895   1.413       .  A
C1894      F1899   1.356       .  S
C1895      C1896   1.413       .  A
C1896      F1897   1.357       .  S
C1901      C1902   1.404       .  A
C1901      C1906   1.394       .  A
C1901      F2700   1.357   1_545  S
C1902      C1903   1.404       .  A
C1902      N2459   1.429   1_545  S
C1903      C1904   1.394       .  A
C1903      F1910   1.357       .  S
C1904      C1905   1.404       .  A
C1904      F1909   1.357       .  S
C1905      C1906   1.405       .  A
C1906      F1907   1.357       .  S
F1908      C2693   1.357       .  S
C1911      C1912   1.403       .  A
C1911      C1916   1.396       .  A
C1911      F1918   1.358       .  S
C1912      C2705   1.402   1_545  A
C1912      N2436   1.428   1_545  S
C1913      C2704   1.402       .  A
C1913      C2706   1.395       .  A
C1913      F2316   1.357       .  S
C1914      C2705   1.395   1_545  A
C1914      C1915   1.402       .  A
C1914      F1919   1.357       .  S
C1915      C1916   1.405       .  A
C1916      F1917   1.357       .  S
F1920      C2309   1.357       .  S
C1921      C1922   1.413       .  A
C1921      C1926   1.404       .  A
C1921      F1928   1.357       .  S
C1922      C1923   1.413       .  A
C1923      C1924   1.406       .  A
C1923      F1930   1.357       .  S
C1924      C1925   1.413       .  A
C1924      F1929   1.357       .  S
C1925      C1926   1.412       .  A
C1926      F1927   1.357       .  S
C1931      C1932   1.413       .  A
C1931      C1936   1.407       .  A
C1931      F1938   1.356       .  S
C1932      C1933   1.413       .  A
C1933      C1934   1.407       .  A
C1933      F1940   1.356       .  S
C1934      C1935   1.413       .  A
C1934      F1939   1.356       .  S
C1935      C1936   1.414       .  A
C1936      F1937   1.356       .  S
C1941      C1946   1.398       .  A
C1941      F1948   1.357       .  S
C1942      C1943   1.406       .  A
C1943      F1950   1.358   1_455  S
C1944      C1945   1.405       .  A
C1944      F1949   1.358       .  S
C1945      C1946   1.405       .  A
C1946      F1947   1.357       .  S
C1951      C1952   1.406       .  A
C1951      F1958   1.357       .  S
C1952      C2349   1.407       .  A
C1953      C2348   1.407   1_554  A
C1953      C1954   1.401       .  A
C1953      F1960   1.357       .  S
C1954      C2351   1.406   1_554  A
C1954      F1959   1.357       .  S
C1955      C2350   1.406       .  A
C1956      F1957   1.357   1_455  S
C1961      C1962   1.414       .  A
C1961      C1966   1.400       .  A
C1961      F1968   1.356       .  S
C1962      C1963   1.412       .  A
C1963      C1964   1.406       .  A
C1963      F1970   1.357       .  S
C1964      C1965   1.413       .  A
C1964      F1969   1.356       .  S
C1965      C1966   1.411       .  A
C1966      F1967   1.357       .  S
C1971      C1972   1.411       .  A
C1971      C1976   1.405       .  A
C1971      F1978   1.356       .  S
C1972      C1973   1.413       .  A
C1973      C1974   1.407       .  A
C1973      F1980   1.356       .  S
C1974      C1975   1.414       .  A
C1974      F1979   1.356       .  S
C1975      C1976   1.414       .  A
C1976      F1977   1.355       .  S
C1981      C1983   1.543       .  S
C1981      C1985   1.531       .  S
C1981      C1984   1.534       .  S
C1981      C2358   1.544       .  S
C1982      C1986   1.557       .  S
C1982      C1988   1.552       .  S
C1982      C1987   1.540       .  S
C1982      C2371   1.549       .  S
C1983      C1991   1.380       .  A
C1984      C1995   1.375       .  A
C1985      C1999   1.377       .  A
C1986      C1989   1.388       .  A
C1987      C1993   1.378       .  A
C1988      C1996   1.386       .  A
C1989      N1990   1.356       .  A
C1989      H2002   1.081       .  S
N1990      C2091   1.434       .  S
C1991      H1992   1.083       .  S
C1993      H2003   1.082       .  S
N1994      C1995   1.358       .  A
C1995      H2001   1.082       .  S
C1996      N1997   1.358       .  A
C1996      H1998   1.082       .  S
N1997      C2229   1.434       .  S
C1999      H2000   1.082       .  S
C2004      C2006   1.556       .  S
C2004      C2008   1.550       .  S
C2004      C2007   1.536       .  S
C2004      C2368   1.548       .  S
C2005      C2009   1.543       .  S
C2005      C2011   1.534       .  S
C2005      C2010   1.536       .  S
C2005      C2361   1.543       .  S
C2006      C2014   1.386       .  A
C2006      C2009   1.405       .  A
C2007      C2018   1.377       .  A
C2007      C2010   1.395       .  A
C2008      C2022   1.384       .  A
C2008      C2011   1.397       .  A
C2009      C2012   1.380       .  A
C2010      C2016   1.376       .  A
C2011      C2019   1.379       .  A
C2012      N2013   1.353       .  A
C2012      H2025   1.083       .  S
N2013      C2014   1.355       .  A
N2013      C2117   1.433       .  S
C2014      H2015   1.080       .  S
C2016      N2017   1.356       .  A
C2016      H2026   1.082       .  S
N2017      C2018   1.357       .  A
N2017      C2338   1.433   1_655  S
C2018      H2024   1.083       .  S
C2019      N2020   1.356       .  A
C2019      H2021   1.083       .  S
N2020      C2022   1.357       .  A
N2020      C2254   1.434       .  S
C2022      H2023   1.081       .  S
C2027      C2029   1.547       .  S
C2027      C2031   1.548       .  S
C2027      C2030   1.527       .  S
C2027      C2318   1.544       .  S
C2028      C2032   1.552       .  S
C2028      C2034   1.550       .  S
C2028      C2033   1.528       .  S
C2028      C2328   1.551       .  S
C2029      C2037   1.383       .  A
C2030      C2041   1.372       .  A
C2031      C2045   1.384       .  A
C2032      C2035   1.380       .  A
C2033      C2039   1.374       .  A
C2034      C2042   1.380       .  A
C2035      H2048   1.081       .  S
N2036      C2037   1.355       .  A
N2036      C2089   1.433       .  S
C2037      H2038   1.081       .  S
C2039      H2049   1.083       .  S
N2040      C2041   1.354       .  A
N2040      C3100   1.428       .  S
C2041      H2047   1.082       .  S
C2042      H2044   1.080       .  S
N2043      C2045   1.355       .  A
C2045      H2046   1.081       .  S
C2050      C2052   1.550       .  S
C2050      C2054   1.552       .  S
C2050      C2053   1.528       .  S
C2050      C2331   1.549       .  S
C2051      C2055   1.551       .  S
C2051      C2057   1.549       .  S
C2051      C2056   1.524       .  S
C2051      C2321   1.545       .  S
C2052      C2060   1.380       .  A
C2052      C2055   1.404       .  A
C2053      C2064   1.373       .  A
C2053      C2056   1.389       .  A
C2054      C2068   1.385       .  A
C2054      C2057   1.404       .  A
C2055      C2058   1.386       .  A
C2056      C2062   1.370       .  A
C2057      C2065   1.381       .  A
C2058      N2059   1.356       .  A
C2058      H2071   1.081       .  S
N2059      C2060   1.356       .  A
N2059      C2111   1.435       .  S
C2060      H2061   1.081       .  S
C2062      N2063   1.355       .  A
C2062      H2072   1.083       .  S
N2063      C2064   1.357       .  A
N2063      C3090   1.429       .  S
C2064      H2070   1.082       .  S
C2065      N2066   1.356       .  A
C2065      H2067   1.081       .  S
N2066      C2068   1.356       .  A
N2066      C2255   1.435       .  S
C2068      H2069   1.081       .  S
O2073      C2089   1.276       .  A
C2074      O2882   1.271   1_545  A
C2074      O2087   1.271       .  A
C2074      C2097   1.442       .  S
O2075     Cd2874   2.076       .  S
O2076      C2094   1.274       .  A
O2076     Cd2085   2.081       .  S
O2077      C2091   1.273       .  A
O2077     Cd2081   2.078       .  S
O2078     Cd2873   2.057       .  S
Zn2079     O2090   1.984       .  S
Zn2079     O2092   2.028       .  S
Zn2079     O2876   1.949       .  S
O2080     Cd2085   2.071       .  S
Cd2081     O2870   2.057   1_545  S
Cd2081     O2083   2.018       .  S
Cd2082     O2867   2.076   1_545  S
Cd2082     O2086   2.025       .  S
Cd2082     O2095   2.077       .  S
O2084     Zn2871   1.949   1_545  S
O2084     Cd2085   1.987       .  S
Cd2085     O2087   2.019       .  S
O2086      C2093   1.270       .  A
C2088      N2128   1.432       .  S
C2088      O2092   1.276       .  A
O2090      C2866   1.271       .  A
C2093      C2116   1.438       .  S
C2094      N2181   1.436       .  S
O2096      C2112   1.276       .  A
O2096     Zn2102   2.033       .  S
C2097      O2905   1.272   1_545  A
C2097      O2110   1.269       .  A
O2098      C2111   1.273       .  A
O2098     Cd2897   2.060       .  S
O2099     Cd2108   2.068       .  S
O2100      C2114   1.275       .  A
O2100     Cd2104   2.076       .  S
O2101      C2112   1.273       .  A
O2101     Cd2896   2.070       .  S
Zn2102     O2113   1.988       .  S
Zn2102     O2899   1.949       .  S
O2103      C2114   1.272       .  A
O2103     Cd2108   2.070       .  S
Cd2104     O2893   2.070   1_545  S
Cd2104     O2106   2.026       .  S
Cd2104     O2107   1.995       .  S
Cd2105     O2890   2.060   1_545  S
Cd2105     O2109   2.021       .  S
Cd2105     O2118   2.079       .  S
O2106      C2116   1.270       .  A
O2107     Zn2894   1.949   1_545  S
O2107     Cd2108   1.986       .  S
Cd2108     O2110   2.011       .  S
C2111      O2115   1.276       .  A
C2112      N2151   1.431       .  S
O2113      C2889   1.272       .  A
C2114      N2204   1.433       .  S
C2117      O2118   1.274       .  A
C2119      C2121   1.550       .  S
C2119      C2123   1.554       .  S
C2119      C2122   1.531       .  S
C2119      C2281   1.549       .  S
C2120      C2124   1.533       .  S
C2120      C2126   1.545       .  S
C2120      C2125   1.544       .  S
C2120      C2288   1.545       .  S
C2121      C2129   1.384       .  A
C2122      C2133   1.372       .  A
C2123      C2137   1.385       .  A
C2124      C2127   1.379       .  A
C2125      C2131   1.382       .  A
C2126      C2134   1.382       .  A
C2127      H2140   1.082       .  S
N2128      C2129   1.356       .  A
C2129      H2130   1.081       .  S
C2131      H2141   1.082       .  S
N2132      C2133   1.357       .  A
N2132      C2348   1.438       .  S
C2133      H2139   1.082       .  S
C2134      H2136   1.083       .  S
N2135      C2137   1.354       .  A
N2135      C2226   1.432       .  S
C2137      H2138   1.079       .  S
C2142      C2144   1.535       .  S
C2142      C2146   1.542       .  S
C2142      C2145   1.538       .  S
C2142      C2291   1.545       .  S
C2143      C2147   1.548       .  S
C2143      C2149   1.555       .  S
C2143      C2148   1.533       .  S
C2143      C2278   1.548       .  S
C2144      C2152   1.377       .  A
C2144      C2147   1.399       .  A
C2145      C2156   1.377       .  A
C2145      C2148   1.394       .  A
C2146      C2160   1.380       .  A
C2146      C2149   1.404       .  A
C2147      C2150   1.382       .  A
C2148      C2154   1.374       .  A
C2149      C2157   1.384       .  A
C2150      N2151   1.356       .  A
C2150      H2163   1.081       .  S
N2151      C2152   1.355       .  A
C2152      H2153   1.083       .  S
C2154      N2155   1.356       .  A
C2154      H2164   1.083       .  S
N2155      C2156   1.357       .  A
N2155      C2341   1.433       .  S
C2156      H2162   1.082       .  S
C2157      N2158   1.356       .  A
C2157      H2159   1.081       .  S
N2158      C2160   1.354       .  A
N2158      C2235   1.433       .  S
C2160      H2161   1.082       .  S
C2165      C2167   1.536       .  S
C2165      C2169   1.546       .  S
C2165      C2168   1.532       .  S
C2165      C2268   1.544       .  S
C2166      C2170   1.548       .  S
C2166      C2172   1.555       .  S
C2166      C2171   1.536       .  S
C2166      C2258   1.547       .  S
C2167      C2175   1.378       .  A
C2168      C2179   1.375       .  A
C2169      C2183   1.383       .  A
C2170      C2173   1.384       .  A
C2171      C2177   1.374       .  A
C2172      C2180   1.387       .  A
C2173      N2174   1.356   1_556  A
C2173      H2186   1.081       .  S
N2174      C2212   1.434       .  S
C2175      H2176   1.082       .  S
C2177      N2178   1.355       .  A
C2177      H2187   1.083       .  S
N2178      C2311   1.429       .  S
C2179      H2185   1.082       .  S
C2180      N2181   1.355       .  A
C2180      H2182   1.081       .  S
C2183      H2184   1.082       .  S
C2188      C2190   1.549       .  S
C2188      C2192   1.556       .  S
C2188      C2191   1.534       .  S
C2188      C2261   1.549       .  S
C2189      C2193   1.534       .  S
C2189      C2195   1.540       .  S
C2189      C2194   1.531       .  S
C2189      C2271   1.543       .  S
C2190      C2198   1.381       .  A
C2190      C2193   1.400       .  A
C2191      C2202   1.373       .  A
C2191      C2194   1.394       .  A
C2192      C2206   1.386       .  A
C2192      C2195   1.404       .  A
C2193      C2196   1.378       .  A
C2194      C2200   1.372       .  A
C2195      C2203   1.379       .  A
C2196      N2197   1.355       .  A
C2196      H2209   1.083       .  S
N2197      C2198   1.355       .  A
N2197      C2250   1.430       .  S
C2198      H2199   1.080       .  S
C2200      N2201   1.355       .  A
C2200      H2210   1.083       .  S
N2201      C2202   1.357       .  A
N2201      C2301   1.430       .  S
C2202      H2208   1.081       .  S
C2203      N2204   1.351       .  A
C2203      H2205   1.082       .  S
N2204      C2206   1.355       .  A
C2206      H2207   1.081       .  S
O2211      C2227   1.270       .  A
O2211     Zn2217   1.982       .  S
C2212      O2228   1.275   1_554  A
O2213     Cd2220   2.069       .  S
O2214      C2232   1.269       .  A
O2214     Cd2223   2.033       .  S
O2215     Cd2219   2.077       .  S
O2216      C2227   1.269       .  A
O2216     Cd2219   2.025       .  S
Zn2217     O2228   2.034       .  S
Zn2217     O2230   2.033       .  S
Zn2217     O2222   1.944       .  S
O2218      C2229   1.275       .  A
O2218     Cd2223   2.080       .  S
Cd2219     O2221   2.087       .  S
Cd2219     O2222   1.997       .  S
Cd2220     O2224   2.062       .  S
Cd2220     O2233   2.022       .  S
Cd2223     O2225   2.074       .  S
O2224      C2231   1.274       .  A
C2226      O2230   1.275       .  A
C2227      C2252   1.430       .  S
C2232      O2233   1.268       .  A
C2232      C2249   1.429       .  S
O2234      C2250   1.273       .  A
O2234     Zn2240   2.024       .  S
C2235      O2251   1.274       .  A
C2235      O2248   1.273       .  A
O2236      C2249   1.270       .  A
O2236     Cd2243   2.034       .  S
O2237      C2255   1.275       .  A
O2237     Cd2246   2.069       .  S
O2238      C2252   1.270       .  A
O2238     Cd2242   2.037       .  S
O2239      C2250   1.274       .  A
O2239     Cd2242   2.066       .  S
Zn2240     O2251   2.020       .  S
Zn2240     O2253   1.966       .  S
Zn2240     O2245   1.942       .  S
O2241      C2252   1.268       .  A
O2241     Cd2246   2.023       .  S
Cd2242     O2244   2.088       .  S
Cd2242     O2245   1.996       .  S
Cd2243     O2247   2.074       .  S
Cd2243     O2256   2.091       .  S
Cd2243     O2245   1.998       .  S
O2244      C2254   1.276       .  A
O2245     Cd2246   1.989       .  S
Cd2246     O2248   2.071       .  S
O2247      C2254   1.275       .  A
C2249      O2253   1.268       .  A
C2255      O2256   1.276       .  A
C2257      C2258   1.413       .  A
C2257      C2262   1.404       .  A
C2257      F2264   1.356       .  S
C2258      C2259   1.414       .  A
C2259      C2260   1.405       .  A
C2259      F2266   1.356       .  S
C2260      C2261   1.413       .  A
C2260      F2265   1.356       .  S
C2261      C2262   1.413       .  A
C2262      F2263   1.356       .  S
C2267      C2268   1.414       .  A
C2267      C2272   1.407       .  A
C2267      F2274   1.357       .  S
C2268      C2269   1.414       .  A
C2269      C2270   1.399       .  A
C2269      F2276   1.356       .  S
C2270      C2271   1.411       .  A
C2270      F2275   1.357       .  S
C2271      C2272   1.413       .  A
C2272      F2273   1.357       .  S
C2277      C2278   1.414       .  A
C2277      C2282   1.406       .  A
C2277      F2284   1.356       .  S
C2278      C2279   1.413       .  A
C2279      C2280   1.404       .  A
C2279      F2286   1.356       .  S
C2280      C2281   1.412       .  A
C2280      F2285   1.356       .  S
C2281      C2282   1.413       .  A
C2282      F2283   1.356       .  S
C2287      C2288   1.413       .  A
C2287      C2292   1.403       .  A
C2287      F2294   1.357       .  S
C2288      C2289   1.413       .  A
C2289      C2290   1.406       .  A
C2289      F2296   1.357       .  S
C2290      C2291   1.413       .  A
C2290      F2295   1.356       .  S
C2291      C2292   1.413       .  A
C2292      F2293   1.357       .  S
C2297      C2298   1.404       .  A
C2297      C2302   1.394       .  A
C2297      F3096   1.357   1_545  S
C2298      C2299   1.404       .  A
C2298      N2855   1.429   1_545  S
C2299      C2300   1.394       .  A
C2299      F2306   1.357       .  S
C2300      C2301   1.404       .  A
C2300      F2305   1.357       .  S
C2301      C2302   1.405       .  A
C2302      F2303   1.357       .  S
F2304      C3089   1.357       .  S
C2307      C2308   1.403       .  A
C2307      C2312   1.396       .  A
C2307      F2314   1.357       .  S
C2308      C3101   1.402   1_546  A
C2308      N2832   1.428   1_545  S
C2309      C3100   1.402   1_554  A
C2309      C3102   1.395       .  A
C2310      C3101   1.395   1_545  A
C2310      C2311   1.402   1_554  A
C2310      F2315   1.357       .  S
C2311      C2312   1.405       .  A
C2312      F2313   1.357       .  S
C2317      C2318   1.413       .  A
C2317      C2322   1.404       .  A
C2317      F2324   1.357       .  S
C2318      C2319   1.413       .  A
C2319      C2320   1.406       .  A
C2319      F2326   1.357       .  S
C2320      C2321   1.413       .  A
C2320      F2325   1.357       .  S
C2321      C2322   1.412       .  A
C2322      F2323   1.357       .  S
C2327      C2328   1.413       .  A
C2327      C2332   1.407       .  A
C2327      F2334   1.356       .  S
C2328      C2329   1.413       .  A
C2329      C2330   1.407       .  A
C2329      F2336   1.356       .  S
C2330      C2331   1.413       .  A
C2330      F2335   1.356       .  S
C2331      C2332   1.414       .  A
C2332      F2333   1.356       .  S
C2337      C2342   1.398       .  A
C2337      F2344   1.357       .  S
C2338      C2339   1.406       .  A
C2339      F2346   1.358   1_455  S
C2340      C2341   1.405       .  A
C2340      F2345   1.358       .  S
C2341      C2342   1.405       .  A
C2342      F2343   1.357       .  S
C2347      C2348   1.406       .  A
C2347      F2354   1.357       .  S
C2349      C2350   1.401       .  A
C2349      F2356   1.357       .  S
C2350      F2355   1.357       .  S
C2352      F2353   1.357   1_455  S
C2357      C2358   1.414       .  A
C2357      C2362   1.400       .  A
C2357      F2364   1.356       .  S
C2358      C2359   1.412       .  A
C2359      C2360   1.406       .  A
C2359      F2366   1.357       .  S
C2360      C2361   1.413       .  A
C2360      F2365   1.356       .  S
C2361      C2362   1.411       .  A
C2362      F2363   1.357       .  S
C2367      C2368   1.411       .  A
C2367      C2372   1.405       .  A
C2367      F2374   1.356       .  S
C2368      C2369   1.413       .  A
C2369      C2370   1.407       .  A
C2369      F2376   1.356       .  S
C2370      C2371   1.414       .  A
C2370      F2375   1.356       .  S
C2371      C2372   1.414       .  A
C2372      F2373   1.355       .  S
C2377      C2379   1.543       .  S
C2377      C2381   1.531       .  S
C2377      C2380   1.534       .  S
C2377      C2754   1.544       .  S
C2378      C2382   1.557       .  S
C2378      C2384   1.552       .  S
C2378      C2383   1.540       .  S
C2378      C2767   1.549       .  S
C2379      C2387   1.380       .  A
C2379      C2778   1.408       .  A
C2380      C2391   1.375       .  A
C2380      C2779   1.394       .  A
C2381      C2395   1.377       .  A
C2381      C2780   1.395       .  A
C2382      C2775   1.408   1_554  A
C2382      C2385   1.388       .  A
C2383      C2776   1.394   1_554  A
C2383      C2389   1.378       .  A
C2384      C2777   1.395   1_554  A
C2384      C2392   1.386       .  A
C2385      N2386   1.356   1_554  A
C2385      H2398   1.081       .  S
N2386      C2783   1.351       .  A
N2386      C2487   1.434       .  S
C2387      N2782   1.351       .  A
C2387      H2388   1.083       .  S
C2389      N2786   1.358   1_554  A
C2389      H2399   1.082       .  S
N2390      C2785   1.358       .  A
N2390      C2391   1.358       .  A
C2391      H2397   1.082       .  S
C2392      N2393   1.358   1_554  A
C2392      H2394   1.082       .  S
N2393      C2791   1.355       .  A
N2393      C2625   1.434       .  S
C2395      N2789   1.355       .  A
C2395      H2396   1.082       .  S
C2400      C2402   1.556       .  S
C2400      C2404   1.550       .  S
C2400      C2403   1.536       .  S
C2400      C2764   1.548       .  S
C2401      C2405   1.543       .  S
C2401      C2407   1.534       .  S
C2401      C2406   1.536       .  S
C2401      C2757   1.543       .  S
C2402      C2410   1.386       .  A
C2402      C2405   1.405       .  A
C2403      C2414   1.377       .  A
C2403      C2406   1.395       .  A
C2404      C2418   1.384       .  A
C2404      C2407   1.397       .  A
C2405      C2408   1.380       .  A
C2406      C2412   1.376       .  A
C2407      C2415   1.379       .  A
C2408      N2409   1.353       .  A
C2408      H2421   1.083       .  S
N2409      C2410   1.355       .  A
N2409      C2513   1.433       .  S
C2410      H2411   1.080       .  S
C2412      N2413   1.356       .  A
C2412      H2422   1.082       .  S
N2413      C2414   1.357       .  A
N2413      C2734   1.433   1_655  S
C2414      H2420   1.083       .  S
C2415      N2416   1.356       .  A
C2415      H2417   1.083       .  S
N2416      C2418   1.357       .  A
N2416      C2650   1.434       .  S
C2418      H2419   1.081       .  S
C2423      C2425   1.547       .  S
C2423      C2427   1.548       .  S
C2423      C2426   1.527       .  S
C2423      C2714   1.544       .  S
C2424      C2428   1.552       .  S
C2424      C2430   1.550       .  S
C2424      C2429   1.528       .  S
C2424      C2724   1.551       .  S
C2425      C2433   1.383       .  A
C2425      C2824   1.404       .  A
C2426      C2437   1.372       .  A
C2426      C2825   1.390       .  A
C2427      C2441   1.384       .  A
C2427      C2826   1.403       .  A
C2428      C2821   1.404   1_554  A
C2428      C2431   1.380       .  A
C2429      C2822   1.390   1_554  A
C2429      C2435   1.374       .  A
C2430      C2823   1.403   1_554  A
C2430      C2438   1.380       .  A
C2431      N2828   1.356   1_554  A
C2431      H2444   1.081       .  S
N2432      C2827   1.356       .  A
N2432      C2433   1.355       .  A
N2432      C2485   1.433       .  S
C2433      H2434   1.081       .  S
C2435      N2832   1.357   1_554  A
C2435      H2445   1.083       .  S
N2436      C2831   1.357       .  A
N2436      C2437   1.354       .  A
C2437      H2443   1.082       .  S
C2438      N2835   1.355   1_554  A
C2438      H2440   1.080       .  S
N2439      C2834   1.355       .  A
N2439      C2441   1.355       .  A
N2439      C3023   1.433       .  S
C2441      H2442   1.081       .  S
C2446      C2448   1.550       .  S
C2446      C2450   1.552       .  S
C2446      C2449   1.528       .  S
C2446      C2727   1.549       .  S
C2447      C2451   1.551       .  S
C2447      C2453   1.549       .  S
C2447      C2452   1.524       .  S
C2447      C2717   1.545       .  S
C2448      C2456   1.380       .  A
C2448      C2451   1.404       .  A
C2449      C2460   1.373       .  A
C2449      C2452   1.389       .  A
C2450      C2464   1.385       .  A
C2450      C2453   1.404       .  A
C2451      C2454   1.386       .  A
C2452      C2458   1.370       .  A
C2453      C2461   1.381       .  A
C2454      N2455   1.356       .  A
C2454      H2467   1.081       .  S
N2455      C2456   1.356       .  A
N2455      C2507   1.435       .  S
C2456      H2457   1.081       .  S
C2458      N2459   1.355       .  A
C2458      H2468   1.083       .  S
N2459      C2460   1.357       .  A
C2460      H2466   1.082       .  S
C2461      N2462   1.356       .  A
C2461      H2463   1.081       .  S
N2462      C2464   1.356       .  A
N2462      C2651   1.435       .  S
C2464      H2465   1.081       .  S
O2469      C2485   1.276       .  A
C2470      O2483   1.271       .  A
C2470      C2493   1.442       .  S
O2471      C2880   1.274   1_554  A
O2472      C2490   1.274       .  A
O2472     Cd2481   2.081       .  S
O2473      C2487   1.273   1_554  A
O2473     Cd2477   2.078       .  S
O2474      C2881   1.273   1_554  A
Zn2475     O2486   1.984       .  S
Zn2475     O2488   2.028       .  S
O2476     Cd2481   2.071       .  S
Cd2477     O2479   2.018       .  S
Cd2478     O2482   2.025       .  S
Cd2478     O2491   2.077       .  S
Cd2478     O2876   1.994   1_554  S
O2480     Cd2874   1.994       .  S
O2480     Cd2481   1.987       .  S
Cd2481     O2483   2.019       .  S
O2482      C2489   1.270       .  A
C2484      N2524   1.432       .  S
C2484      O2867   1.274       .  A
C2484      O2488   1.276       .  A
C2485      O2870   1.273       .  A
C2489      C2512   1.438       .  S
C2490      N2577   1.436       .  S
C2490      O2887   1.275       .  A
O2491      C2886   1.275   1_554  A
O2492      C2508   1.276       .  A
O2492     Zn2498   2.033       .  S
C2493      O2506   1.269       .  A
O2494      C2507   1.273       .  A
O2495     Cd2504   2.068       .  S
O2496      C2510   1.275       .  A
O2496     Cd2500   2.076       .  S
O2497      C2508   1.273       .  A
Zn2498     O2509   1.988       .  S
O2499      C2510   1.272       .  A
O2499     Cd2504   2.070       .  S
Cd2500     O2502   2.026       .  S
Cd2500     O2503   1.995       .  S
Cd2501     O2505   2.021       .  S
Cd2501     O2514   2.079       .  S
O2502      C2512   1.270       .  A
O2503     Cd2504   1.986       .  S
Cd2504     O2506   2.011       .  S
C2507      O2511   1.276       .  A
C2508      N2547   1.431       .  S
C2510      N2600   1.433       .  S
C2513      O2514   1.274       .  A
C2515      C2517   1.550       .  S
C2515      C2519   1.554       .  S
C2515      C2518   1.531       .  S
C2515      C2677   1.549       .  S
C2516      C2520   1.533       .  S
C2516      C2522   1.545       .  S
C2516      C2521   1.544       .  S
C2516      C2684   1.545       .  S
C2517      C2525   1.384       .  A
C2517      C2916   1.396       .  A
C2518      C2529   1.372       .  A
C2518      C2917   1.394       .  A
C2519      C2533   1.385       .  A
C2519      C2918   1.408       .  A
C2520      C2913   1.396   1_554  A
C2520      C2523   1.379       .  A
C2521      C2914   1.394   1_554  A
C2521      C2527   1.382       .  A
C2522      C2915   1.408   1_554  A
C2522      C2530   1.382       .  A
C2523      N2920   1.356   1_554  A
C2523      H2536   1.082       .  S
N2524      C2919   1.356       .  A
N2524      C2525   1.356       .  A
C2525      H2526   1.081       .  S
C2527      N2924   1.360   1_554  A
C2527      H2537   1.082       .  S
N2528      C2923   1.360       .  A
N2528      C2529   1.357       .  A
N2528      C2744   1.438       .  S
C2529      H2535   1.082       .  S
C2530      N2927   1.352   1_554  A
C2530      H2532   1.083       .  S
N2531      C2926   1.352       .  A
N2531      C2533   1.354       .  A
N2531      C2622   1.432       .  S
C2533      H2534   1.079       .  S
C2538      C2540   1.535       .  S
C2538      C2542   1.542       .  S
C2538      C2541   1.538       .  S
C2538      C2687   1.545       .  S
C2539      C2543   1.548       .  S
C2539      C2545   1.555       .  S
C2539      C2544   1.533       .  S
C2539      C2674   1.548       .  S
C2540      C2548   1.377       .  A
C2540      C2543   1.399       .  A
C2541      C2552   1.377       .  A
C2541      C2544   1.394       .  A
C2542      C2556   1.380       .  A
C2542      C2545   1.404       .  A
C2543      C2546   1.382       .  A
C2544      C2550   1.374       .  A
C2545      C2553   1.384       .  A
C2546      N2547   1.356       .  A
C2546      H2559   1.081       .  S
N2547      C2548   1.355       .  A
C2548      H2549   1.083       .  S
C2550      N2551   1.356       .  A
C2550      H2560   1.083       .  S
N2551      C2552   1.357       .  A
N2551      C2737   1.433       .  S
C2552      H2558   1.082       .  S
C2553      N2554   1.356       .  A
C2553      H2555   1.081       .  S
N2554      C2556   1.354       .  A
N2554      C2631   1.433       .  S
C2556      H2557   1.082       .  S
C2561      C2563   1.535       .  S
C2561      C2565   1.546       .  S
C2561      C2564   1.532       .  S
C2561      C2664   1.544       .  S
C2562      C2566   1.548       .  S
C2562      C2568   1.555       .  S
C2562      C2567   1.536       .  S
C2562      C2654   1.547       .  S
C2563      C2571   1.378       .  A
C2563      C2962   1.396   1_554  A
C2564      C2575   1.375       .  A
C2564      C2963   1.394   1_554  A
C2565      C2579   1.383       .  A
C2565      C2964   1.408   1_554  A
C2566      C2959   1.396       .  A
C2566      C2569   1.384       .  A
C2567      C2960   1.394       .  A
C2567      C2573   1.374       .  A
C2568      C2961   1.408       .  A
C2568      C2576   1.387       .  A
C2569      N2570   1.356       .  A
C2569      H2582   1.081       .  S
N2570      C2967   1.356       .  A
N2570      C2608   1.434       .  S
C2571      N2966   1.356       .  A
C2571      H2572   1.082       .  S
C2573      N2574   1.355       .  A
C2573      H2583   1.083       .  S
N2574      C2971   1.356       .  A
N2574      C2707   1.429       .  S
C2575      N2970   1.356   1_554  A
C2575      H2581   1.082       .  S
C2576      N2577   1.355       .  A
C2576      H2578   1.081       .  S
N2577      C2975   1.353       .  A
C2579      N2973   1.353   1_554  A
C2579      H2580   1.082       .  S
C2584      C2586   1.549       .  S
C2584      C2588   1.556       .  S
C2584      C2587   1.534       .  S
C2584      C2657   1.549       .  S
C2585      C2589   1.534       .  S
C2585      C2591   1.540       .  S
C2585      C2590   1.531       .  S
C2585      C2667   1.543       .  S
C2586      C2594   1.381       .  A
C2586      C2589   1.400       .  A
C2587      C2598   1.373       .  A
C2587      C2590   1.394       .  A
C2588      C2602   1.386       .  A
C2588      C2591   1.404       .  A
C2589      C2592   1.378       .  A
C2590      C2596   1.372       .  A
C2591      C2599   1.379       .  A
C2592      N2593   1.355       .  A
C2592      H2605   1.083       .  S
N2593      C2594   1.355       .  A
N2593      C2646   1.430       .  S
C2594      H2595   1.080       .  S
C2596      N2597   1.355       .  A
C2596      H2606   1.083       .  S
N2597      C2598   1.357       .  A
N2597      C2697   1.430       .  S
C2598      H2604   1.081       .  S
C2599      N2600   1.351       .  A
C2599      H2601   1.082       .  S
N2600      C2602   1.355       .  A
C2602      H2603   1.081       .  S
O2607      C2623   1.270       .  A
O2607     Zn2613   1.982       .  S
C2608      O2624   1.275       .  A
C2608      O3017   1.275       .  A
O2609      C3018   1.273   1_554  A
O2609     Cd2616   2.069       .  S
O2610      C2628   1.269       .  A
O2610     Cd2619   2.033       .  S
O2611      C3021   1.275       .  A
O2611     Cd2615   2.077       .  S
O2612      C2623   1.269       .  A
O2612     Cd2615   2.025       .  S
Zn2613     O2624   2.034       .  S
Zn2613     O2626   2.033       .  S
Zn2613     O2618   1.944       .  S
O2614      C2625   1.275   1_554  A
O2614     Cd2619   2.080       .  S
Cd2615     O2617   2.087       .  S
Cd2615     O2618   1.997       .  S
Cd2616     O2620   2.062       .  S
Cd2616     O2629   2.022       .  S
Cd2616     O3014   1.988   1_554  S
O2617      C3023   1.275       .  A
O2618     Cd3012   1.988       .  S
O2618     Cd3015   1.995       .  S
Cd2619     O2621   2.074       .  S
Cd2619     O3014   1.995   1_554  S
O2620      C2627   1.274   1_554  A
O2621      C3004   1.275       .  A
C2622      O3005   1.273       .  A
C2622      O2626   1.275       .  A
C2623      C2648   1.430       .  S
C2625      O3007   1.275       .  A
C2627      N2835   1.433       .  S
C2627      O3013   1.275       .  A
C2628      O2629   1.268       .  A
C2628      C2645   1.429       .  S
O2630      C2646   1.273       .  A
O2630     Zn2636   2.024       .  S
C2631      O2647   1.274       .  A
C2631      O2644   1.273       .  A
O2632      C2645   1.270       .  A
O2632     Cd2639   2.034       .  S
O2633      C2651   1.275       .  A
O2633     Cd2642   2.069       .  S
O2634      C2648   1.270       .  A
O2634     Cd2638   2.037       .  S
O2635      C2646   1.274       .  A
O2635     Cd2638   2.066       .  S
Zn2636     O2647   2.020       .  S
Zn2636     O2649   1.966       .  S
Zn2636     O2641   1.942       .  S
O2637      C2648   1.268       .  A
O2637     Cd2642   2.023       .  S
Cd2638     O2640   2.088       .  S
Cd2638     O2641   1.996       .  S
Cd2639     O2643   2.074       .  S
Cd2639     O2652   2.091       .  S
Cd2639     O2641   1.998       .  S
O2640      C2650   1.276       .  A
O2641     Cd2642   1.989       .  S
Cd2642     O2644   2.071       .  S
O2643      C2650   1.275       .  A
C2645      O2649   1.268       .  A
C2651      O2652   1.276       .  A
C2653      C2654   1.413       .  A
C2653      C2658   1.404       .  A
C2653      F2660   1.356       .  S
C2654      C2655   1.414       .  A
C2655      C2656   1.405       .  A
C2655      F2662   1.356       .  S
C2656      C2657   1.413       .  A
C2656      F2661   1.356       .  S
C2657      C2658   1.413       .  A
C2658      F2659   1.356       .  S
C2663      C2664   1.414       .  A
C2663      C2668   1.407       .  A
C2663      F2670   1.357       .  S
C2664      C2665   1.414       .  A
C2665      C2666   1.399       .  A
C2665      F2672   1.356       .  S
C2666      C2667   1.411       .  A
C2666      F2671   1.357       .  S
C2667      C2668   1.413       .  A
C2668      F2669   1.357       .  S
C2673      C2674   1.414       .  A
C2673      C2678   1.406       .  A
C2673      F2680   1.356       .  S
C2674      C2675   1.413       .  A
C2675      C2676   1.404       .  A
C2675      F2682   1.356       .  S
C2676      C2677   1.412       .  A
C2676      F2681   1.356       .  S
C2677      C2678   1.413       .  A
C2678      F2679   1.356       .  S
C2683      C2684   1.413       .  A
C2683      C2688   1.403       .  A
C2683      F2690   1.357       .  S
C2684      C2685   1.413       .  A
C2685      C2686   1.406       .  A
C2685      F2692   1.357       .  S
C2686      C2687   1.413       .  A
C2686      F2691   1.356       .  S
C2687      C2688   1.413       .  A
C2688      F2689   1.357       .  S
C2693      C2694   1.404       .  A
C2693      C2698   1.394       .  A
C2694      C2695   1.404       .  A
C2695      C2696   1.394       .  A
C2695      F2702   1.357       .  S
C2696      C2697   1.404       .  A
C2696      F2701   1.357       .  S
C2697      C2698   1.405       .  A
C2698      F2699   1.357       .  S
C2703      C2704   1.403       .  A
C2703      C2708   1.396       .  A
C2703      F2710   1.357       .  S
C2705      F3108   1.357       .  S
C2706      C2707   1.402       .  A
C2706      F2711   1.357       .  S
C2707      C2708   1.405       .  A
C2708      F2709   1.357       .  S
F2712      C3101   1.357       .  S
C2713      C2714   1.413       .  A
C2713      C2718   1.404       .  A
C2713      F2720   1.357       .  S
C2714      C2715   1.413       .  A
C2715      C2716   1.406       .  A
C2715      F2722   1.357       .  S
C2716      C2717   1.413       .  A
C2716      F2721   1.357       .  S
C2717      C2718   1.412       .  A
C2718      F2719   1.357       .  S
C2723      C2724   1.413       .  A
C2723      C2728   1.407       .  A
C2723      F2730   1.356       .  S
C2724      C2725   1.413       .  A
C2725      C2726   1.407       .  A
C2725      F2732   1.356       .  S
C2726      C2727   1.413       .  A
C2726      F2731   1.356       .  S
C2727      C2728   1.414       .  A
C2728      F2729   1.356       .  S
C2733      C2738   1.398       .  A
C2733      F2740   1.357       .  S
C2734      C2735   1.406       .  A
C2735      F2742   1.358   1_455  S
C2736      C2737   1.405       .  A
C2736      F2741   1.358       .  S
C2737      C2738   1.405       .  A
C2738      F2739   1.357       .  S
C2743      C2744   1.406       .  A
C2743      F2750   1.357       .  S
C2744      C3141   1.407       .  A
C2745      C3140   1.407   1_554  A
C2745      C2746   1.401       .  A
C2745      F2752   1.357       .  S
C2746      C3143   1.406   1_554  A
C2746      F2751   1.357       .  S
C2747      C3142   1.406       .  A
C2748      F2749   1.357   1_455  S
C2753      C2754   1.414       .  A
C2753      C2758   1.400       .  A
C2753      F2760   1.356       .  S
C2754      C2755   1.412       .  A
C2755      C2756   1.406       .  A
C2755      F2762   1.357       .  S
C2756      C2757   1.413       .  A
C2756      F2761   1.356       .  S
C2757      C2758   1.411       .  A
C2758      F2759   1.357       .  S
C2763      C2764   1.411       .  A
C2763      C2768   1.405       .  A
C2763      F2770   1.356       .  S
C2764      C2765   1.413       .  A
C2765      C2766   1.407       .  A
C2765      F2772   1.356       .  S
C2766      C2767   1.414       .  A
C2766      F2771   1.356       .  S
C2767      C2768   1.414       .  A
C2768      F2769   1.355       .  S
C2773      C2775   1.543       .  S
C2773      C2777   1.531       .  S
C2773      C2776   1.534       .  S
C2773      C3150   1.544       .  S
C2774      C2778   1.557       .  S
C2774      C2780   1.552       .  S
C2774      C2779   1.540       .  S
C2774      C3163   1.549       .  S
C2775      C2783   1.380       .  A
C2776      C2787   1.375       .  A
C2777      C2791   1.377       .  A
C2778      C2781   1.388       .  A
C2779      C2785   1.378       .  A
C2780      C2788   1.386       .  A
C2781      N2782   1.356       .  A
C2781      H2794   1.081       .  S
N2782      C2883   1.434       .  S
C2783      H2784   1.083       .  S
C2785      H2795   1.082       .  S
N2786      C2787   1.358       .  A
C2787      H2793   1.082       .  S
C2788      N2789   1.358       .  A
C2788      H2790   1.082       .  S
N2789      C3021   1.434       .  S
C2791      H2792   1.082       .  S
C2796      C2798   1.556       .  S
C2796      C2800   1.550       .  S
C2796      C2799   1.536       .  S
C2796      C3160   1.548       .  S
C2797      C2801   1.543       .  S
C2797      C2803   1.534       .  S
C2797      C2802   1.536       .  S
C2797      C3153   1.543       .  S
C2798      C2806   1.386       .  A
C2798      C2801   1.405       .  A
C2799      C2810   1.377       .  A
C2799      C2802   1.395       .  A
C2800      C2814   1.384       .  A
C2800      C2803   1.397       .  A
C2801      C2804   1.380       .  A
C2802      C2808   1.376       .  A
C2803      C2811   1.379       .  A
C2804      N2805   1.353       .  A
C2804      H2817   1.083       .  S
N2805      C2806   1.355       .  A
N2805      C2909   1.433       .  S
C2806      H2807   1.080       .  S
C2808      N2809   1.356       .  A
C2808      H2818   1.082       .  S
N2809      C2810   1.357       .  A
N2809      C3130   1.433   1_655  S
C2810      H2816   1.083       .  S
C2811      N2812   1.356       .  A
C2811      H2813   1.083       .  S
N2812      C2814   1.357       .  A
N2812      C3046   1.434       .  S
C2814      H2815   1.081       .  S
C2819      C2821   1.547       .  S
C2819      C2823   1.548       .  S
C2819      C2822   1.527       .  S
C2819      C3110   1.544       .  S
C2820      C2824   1.552       .  S
C2820      C2826   1.550       .  S
C2820      C2825   1.528       .  S
C2820      C3120   1.551       .  S
C2821      C2829   1.383       .  A
C2822      C2833   1.372       .  A
C2823      C2837   1.384       .  A
C2824      C2827   1.380       .  A
C2825      C2831   1.374       .  A
C2826      C2834   1.380       .  A
C2827      H2840   1.081       .  S
N2828      C2829   1.355       .  A
N2828      C2881   1.433       .  S
C2829      H2830   1.081       .  S
C2831      H2841   1.083       .  S
N2832      C2833   1.354       .  A
C2833      H2839   1.082       .  S
C2834      H2836   1.080       .  S
N2835      C2837   1.355       .  A
C2837      H2838   1.081       .  S
C2842      C2844   1.550       .  S
C2842      C2846   1.552       .  S
C2842      C2845   1.528       .  S
C2842      C3123   1.549       .  S
C2843      C2847   1.551       .  S
C2843      C2849   1.549       .  S
C2843      C2848   1.524       .  S
C2843      C3113   1.545       .  S
C2844      C2852   1.380       .  A
C2844      C2847   1.404       .  A
C2845      C2856   1.373       .  A
C2845      C2848   1.389       .  A
C2846      C2860   1.385       .  A
C2846      C2849   1.404       .  A
C2847      C2850   1.386       .  A
C2848      C2854   1.370       .  A
C2849      C2857   1.381       .  A
C2850      N2851   1.356       .  A
C2850      H2863   1.081       .  S
N2851      C2852   1.356       .  A
N2851      C2903   1.435       .  S
C2852      H2853   1.081       .  S
C2854      N2855   1.355       .  A
C2854      H2864   1.083       .  S
N2855      C2856   1.357       .  A
C2856      H2862   1.082       .  S
C2857      N2858   1.356       .  A
C2857      H2859   1.081       .  S
N2858      C2860   1.356       .  A
N2858      C3047   1.435       .  S
C2860      H2861   1.081       .  S
O2865      C2881   1.276       .  A
C2866      O2879   1.271       .  A
C2866      C2889   1.442       .  S
O2868      C2886   1.274       .  A
O2868     Cd2877   2.081       .  S
O2869      C2883   1.273       .  A
O2869     Cd2873   2.078       .  S
Zn2871     O2882   1.984       .  S
Zn2871     O2884   2.028       .  S
O2872     Cd2877   2.071       .  S
Cd2873     O2875   2.018       .  S
Cd2874     O2878   2.025       .  S
Cd2874     O2887   2.077       .  S
O2876     Cd2877   1.987       .  S
Cd2877     O2879   2.019       .  S
O2878      C2885   1.270       .  A
C2880      N2920   1.432       .  S
C2880      O2884   1.276       .  A
C2885      C2908   1.438       .  S
C2886      N2973   1.436       .  S
O2888      C2904   1.276       .  A
O2888     Zn2894   2.033       .  S
C2889      O2902   1.269       .  A
O2890      C2903   1.273       .  A
O2891     Cd2900   2.068       .  S
O2892      C2906   1.275       .  A
O2892     Cd2896   2.076       .  S
O2893      C2904   1.273       .  A
Zn2894     O2905   1.988       .  S
O2895      C2906   1.272       .  A
O2895     Cd2900   2.070       .  S
Cd2896     O2898   2.026       .  S
Cd2896     O2899   1.995       .  S
Cd2897     O2901   2.021       .  S
Cd2897     O2910   2.079       .  S
O2898      C2908   1.270       .  A
O2899     Cd2900   1.986       .  S
Cd2900     O2902   2.011       .  S
C2903      O2907   1.276       .  A
C2904      N2943   1.431       .  S
C2906      N2996   1.433       .  S
C2909      O2910   1.274       .  A
C2911      C2913   1.550       .  S
C2911      C2915   1.554       .  S
C2911      C2914   1.531       .  S
C2911      C3073   1.549       .  S
C2912      C2916   1.533       .  S
C2912      C2918   1.545       .  S
C2912      C2917   1.544       .  S
C2912      C3080   1.545       .  S
C2913      C2921   1.384       .  A
C2914      C2925   1.372       .  A
C2915      C2929   1.385       .  A
C2916      C2919   1.379       .  A
C2917      C2923   1.382       .  A
C2918      C2926   1.382       .  A
C2919      H2932   1.082       .  S
N2920      C2921   1.356       .  A
C2921      H2922   1.081       .  S
C2923      H2933   1.082       .  S
N2924      C2925   1.357       .  A
N2924      C3140   1.438       .  S
C2925      H2931   1.082       .  S
C2926      H2928   1.083       .  S
N2927      C2929   1.354       .  A
N2927      C3018   1.432       .  S
C2929      H2930   1.079       .  S
C2934      C2936   1.535       .  S
C2934      C2938   1.542       .  S
C2934      C2937   1.538       .  S
C2934      C3083   1.545       .  S
C2935      C2939   1.548       .  S
C2935      C2941   1.555       .  S
C2935      C2940   1.533       .  S
C2935      C3070   1.548       .  S
C2936      C2944   1.377       .  A
C2936      C2939   1.399       .  A
C2937      C2948   1.377       .  A
C2937      C2940   1.394       .  A
C2938      C2952   1.380       .  A
C2938      C2941   1.404       .  A
C2939      C2942   1.382       .  A
C2940      C2946   1.374       .  A
C2941      C2949   1.384       .  A
C2942      N2943   1.356       .  A
C2942      H2955   1.081       .  S
N2943      C2944   1.355       .  A
C2944      H2945   1.083       .  S
C2946      N2947   1.356       .  A
C2946      H2956   1.083       .  S
N2947      C2948   1.357       .  A
N2947      C3133   1.433       .  S
C2948      H2954   1.082       .  S
C2949      N2950   1.356       .  A
C2949      H2951   1.081       .  S
N2950      C2952   1.354       .  A
N2950      C3027   1.433       .  S
C2952      H2953   1.082       .  S
C2957      C2959   1.536       .  S
C2957      C2961   1.546       .  S
C2957      C2960   1.532       .  S
C2957      C3060   1.544       .  S
C2958      C2962   1.548       .  S
C2958      C2964   1.555       .  S
C2958      C2963   1.536       .  S
C2958      C3050   1.547       .  S
C2959      C2967   1.378       .  A
C2960      C2971   1.375       .  A
C2961      C2975   1.383       .  A
C2962      C2965   1.384       .  A
C2963      C2969   1.374       .  A
C2964      C2972   1.387       .  A
C2965      N2966   1.356   1_556  A
C2965      H2978   1.081       .  S
N2966      C3004   1.434       .  S
C2967      H2968   1.082       .  S
C2969      N2970   1.355       .  A
C2969      H2979   1.083       .  S
N2970      C3103   1.429       .  S
C2971      H2977   1.082       .  S
C2972      N2973   1.355       .  A
C2972      H2974   1.081       .  S
C2975      H2976   1.082       .  S
C2980      C2982   1.549       .  S
C2980      C2984   1.556       .  S
C2980      C2983   1.534       .  S
C2980      C3053   1.549       .  S
C2981      C2985   1.534       .  S
C2981      C2987   1.540       .  S
C2981      C2986   1.531       .  S
C2981      C3063   1.543       .  S
C2982      C2990   1.381       .  A
C2982      C2985   1.400       .  A
C2983      C2994   1.373       .  A
C2983      C2986   1.394       .  A
C2984      C2998   1.386       .  A
C2984      C2987   1.404       .  A
C2985      C2988   1.378       .  A
C2986      C2992   1.372       .  A
C2987      C2995   1.379       .  A
C2988      N2989   1.355       .  A
C2988      H3001   1.083       .  S
N2989      C2990   1.355       .  A
N2989      C3042   1.430       .  S
C2990      H2991   1.080       .  S
C2992      N2993   1.355       .  A
C2992      H3002   1.083       .  S
N2993      C2994   1.357       .  A
N2993      C3093   1.430       .  S
C2994      H3000   1.081       .  S
C2995      N2996   1.351       .  A
C2995      H2997   1.082       .  S
N2996      C2998   1.355       .  A
C2998      H2999   1.081       .  S
O3003      C3019   1.270       .  A
O3003     Zn3009   1.982       .  S
C3004      O3020   1.275   1_554  A
O3005     Cd3012   2.069       .  S
O3006      C3024   1.269       .  A
O3006     Cd3015   2.033       .  S
O3007     Cd3011   2.077       .  S
O3008      C3019   1.269       .  A
O3008     Cd3011   2.025       .  S
Zn3009     O3020   2.034       .  S
Zn3009     O3022   2.033       .  S
Zn3009     O3014   1.944       .  S
O3010      C3021   1.275       .  A
O3010     Cd3015   2.080       .  S
Cd3011     O3013   2.087       .  S
Cd3011     O3014   1.997       .  S
Cd3012     O3016   2.062       .  S
Cd3012     O3025   2.022       .  S
Cd3015     O3017   2.074       .  S
O3016      C3023   1.274       .  A
C3018      O3022   1.275       .  A
C3019      C3044   1.430       .  S
C3024      O3025   1.268       .  A
C3024      C3041   1.429       .  S
O3026      C3042   1.273       .  A
O3026     Zn3032   2.024       .  S
C3027      O3043   1.274       .  A
C3027      O3040   1.273       .  A
O3028      C3041   1.270       .  A
O3028     Cd3035   2.034       .  S
O3029      C3047   1.275       .  A
O3029     Cd3038   2.069       .  S
O3030      C3044   1.270       .  A
O3030     Cd3034   2.037       .  S
O3031      C3042   1.274       .  A
O3031     Cd3034   2.066       .  S
Zn3032     O3043   2.020       .  S
Zn3032     O3045   1.966       .  S
Zn3032     O3037   1.942       .  S
O3033      C3044   1.268       .  A
O3033     Cd3038   2.023       .  S
Cd3034     O3036   2.088       .  S
Cd3034     O3037   1.996       .  S
Cd3035     O3039   2.074       .  S
Cd3035     O3048   2.091       .  S
Cd3035     O3037   1.998       .  S
O3036      C3046   1.276       .  A
O3037     Cd3038   1.989       .  S
Cd3038     O3040   2.071       .  S
O3039      C3046   1.275       .  A
C3041      O3045   1.268       .  A
C3047      O3048   1.276       .  A
C3049      C3050   1.413       .  A
C3049      C3054   1.404       .  A
C3049      F3056   1.356       .  S
C3050      C3051   1.414       .  A
C3051      C3052   1.405       .  A
C3051      F3058   1.356       .  S
C3052      C3053   1.413       .  A
C3052      F3057   1.356       .  S
C3053      C3054   1.413       .  A
C3054      F3055   1.356       .  S
C3059      C3060   1.414       .  A
C3059      C3064   1.407       .  A
C3059      F3066   1.357       .  S
C3060      C3061   1.414       .  A
C3061      C3062   1.399       .  A
C3061      F3068   1.356       .  S
C3062      C3063   1.411       .  A
C3062      F3067   1.357       .  S
C3063      C3064   1.413       .  A
C3064      F3065   1.357       .  S
C3069      C3070   1.414       .  A
C3069      C3074   1.406       .  A
C3069      F3076   1.356       .  S
C3070      C3071   1.413       .  A
C3071      C3072   1.404       .  A
C3071      F3078   1.356       .  S
C3072      C3073   1.412       .  A
C3072      F3077   1.356       .  S
C3073      C3074   1.413       .  A
C3074      F3075   1.356       .  S
C3079      C3080   1.413       .  A
C3079      C3084   1.403       .  A
C3079      F3086   1.357       .  S
C3080      C3081   1.413       .  A
C3081      C3082   1.406       .  A
C3081      F3088   1.357       .  S
C3082      C3083   1.413       .  A
C3082      F3087   1.356       .  S
C3083      C3084   1.413       .  A
C3084      F3085   1.357       .  S
C3089      C3090   1.404       .  A
C3089      C3094   1.394       .  A
C3090      C3091   1.404       .  A
C3091      C3092   1.394       .  A
C3091      F3098   1.357       .  S
C3092      C3093   1.404       .  A
C3092      F3097   1.357       .  S
C3093      C3094   1.405       .  A
C3094      F3095   1.357       .  S
C3099      C3100   1.403       .  A
C3099      C3104   1.396       .  A
C3099      F3106   1.358       .  S
C3102      C3103   1.402   1_554  A
C3102      F3107   1.357       .  S
C3103      C3104   1.405       .  A
C3104      F3105   1.357       .  S
C3109      C3110   1.413       .  A
C3109      C3114   1.404       .  A
C3109      F3116   1.357       .  S
C3110      C3111   1.413       .  A
C3111      C3112   1.406       .  A
C3111      F3118   1.357       .  S
C3112      C3113   1.413       .  A
C3112      F3117   1.357       .  S
C3113      C3114   1.412       .  A
C3114      F3115   1.357       .  S
C3119      C3120   1.413       .  A
C3119      C3124   1.407       .  A
C3119      F3126   1.356       .  S
C3120      C3121   1.413       .  A
C3121      C3122   1.407       .  A
C3121      F3128   1.356       .  S
C3122      C3123   1.413       .  A
C3122      F3127   1.356       .  S
C3123      C3124   1.414       .  A
C3124      F3125   1.356       .  S
C3129      C3134   1.398       .  A
C3129      F3136   1.357       .  S
C3130      C3131   1.406       .  A
C3131      F3138   1.358   1_455  S
C3132      C3133   1.405       .  A
C3132      F3137   1.358       .  S
C3133      C3134   1.405       .  A
C3134      F3135   1.357       .  S
C3139      C3140   1.406       .  A
C3139      F3146   1.357       .  S
C3141      C3142   1.401       .  A
C3141      F3148   1.357       .  S
C3142      F3147   1.357       .  S
C3144      F3145   1.357   1_455  S
C3149      C3150   1.414       .  A
C3149      C3154   1.400       .  A
C3149      F3156   1.356       .  S
C3150      C3151   1.412       .  A
C3151      C3152   1.406       .  A
C3151      F3158   1.357       .  S
C3152      C3153   1.413       .  A
C3152      F3157   1.356       .  S
C3153      C3154   1.411       .  A
C3154      F3155   1.357       .  S
C3159      C3160   1.411       .  A
C3159      C3164   1.405       .  A
C3159      F3166   1.356       .  S
C3160      C3161   1.413       .  A
C3161      C3162   1.407       .  A
C3161      F3168   1.356       .  S
C3162      C3163   1.414       .  A
C3162      F3167   1.356       .  S
C3163      C3164   1.414       .  A
C3164      F3165   1.355       .  S
