geometry optimzed in LAMMPS
_audit_creation_date              2020-11-30 
_audit_creation_method            'lammps2cif' 
_symmetry_space_group_name_H-M    'P1' 
_symmetry_Int_Tables_number       1 
_symmetry_cell_setting            triclinic 
loop_ 
_symmetry_equiv_pos_as_xyz 
  x,y,z 
_cell_length_a                    51.54976551 
_cell_length_b                    51.54316103401213 
_cell_length_c                    43.78827703345251 
_cell_angle_alpha                 89.96217132045011 
_cell_angle_beta                  90.0575627346609 
_cell_angle_gamma                 120.18539833563997 
loop_ 
_atom_site_label 
_atom_site_type_symbol 
_atom_site_fract_x 
_atom_site_fract_y 
_atom_site_fract_z 
_atom_site_charge 
C1          C  0.22651119  0.21504562  0.14757742     0.81600
N2          N  0.22691428  0.21457310  0.11647394    -0.76700
C3          C  0.25082247  0.23636664  0.10092009     0.84000
N4          N  0.27424862  0.25862328  0.11648457    -0.76700
C5          C  0.27414377  0.25910106  0.14737277     0.84100
N6          N  0.25034531  0.23729007  0.16262236    -0.78400
C7          C  0.23154750  0.21479867  0.01957489     0.81600
N8          N  0.22957399  0.21440814  0.05061789    -0.76700
C9          C  0.25220093  0.23622904  0.06748029     0.84000
N10         N  0.27666593  0.25846090  0.05327161    -0.76700
C11         C  0.27897755  0.25892891  0.02248213     0.84100
N12         N  0.25642119  0.23706232  0.00578617    -0.78400
C13         C  0.24168474  0.47225529  0.14876548     0.81600
N14         N  0.24391253  0.47514798  0.11782231    -0.76700
C15         C  0.22216765  0.47652259  0.10143663     0.84000
N16         N  0.19837549  0.47532093  0.11611051    -0.76700
C17         C  0.19592940  0.47234280  0.14689995     0.84100
N18         N  0.21759671  0.47080322  0.16298040    -0.78400
C19         C  0.24844090  0.48208368  0.02153829     0.81600
N20         N  0.22632328  0.48373360  0.00631827    -0.76700
C21         C  0.20310380  0.48319286  0.02148401     0.84000
N22         N  0.20207518  0.48086272  0.05237392    -0.76700
C23         C  0.22398463  0.47922061  0.06799861     0.84100
N24         N  0.24711595  0.47978770  0.05252640    -0.78400
C25         C  0.49357053  0.24048573  0.14792848     0.81600
N26         N  0.49143659  0.24023352  0.11692302    -0.76700
C27         C  0.48934498  0.21682686  0.10048527     0.84000
N28         N  0.48903277  0.19345616  0.11517337    -0.76700
C29         C  0.49124205  0.19348166  0.14604834     0.84100
N30         N  0.49354046  0.21704279  0.16219426    -0.78400
C31         C  0.48424841  0.23853274  0.02083331     0.81600
N32         N  0.48654711  0.23917059  0.05181302    -0.76700
C33         C  0.48698344  0.21639833  0.06700556     0.84000
N34         N  0.48526457  0.19295425  0.05107695    -0.76700
C35         C  0.48281900  0.19199326  0.02018711     0.84100
N36         N  0.48228030  0.21478591  0.00530236    -0.78400
O37         O  0.01003047  0.41180081  0.37177404    -0.86800
C38         C  0.07171354  0.06372075  0.28936170     1.13200
O39         O  0.48427101  0.44534590  0.33564196    -1.34600
O40         O  0.07729024  0.04419085  0.36808708    -0.88300
O41         O  0.45825336  0.38523027  0.36965217    -0.89000
O42         O  0.45461762  0.44648929  0.39997459    -0.77800
O43         O  0.04424293  0.47748693  0.36350169    -0.99900
C44         C  0.48553031  0.03245349  0.38994022     1.23300
O45         O  0.45393127  0.47726490  0.33569917    -1.34800
Mn46       Mn  0.48456477  0.47660897  0.30229781     1.82100
O47         O  0.48546735  0.00938705  0.39900663    -0.76900
O48         O  0.05324284  0.07002347  0.36798548    -0.86300
C49         C  0.48232450  0.02979168  0.27829007     1.14400
C50         C  0.07351706  0.06510834  0.37824373     1.09100
O51         O  0.45296875  0.44546951  0.27142327    -0.77800
O52         O  0.01652705  0.00919217  0.33485776    -1.31500
O53         O  0.42540773  0.41840886  0.30742816    -0.97000
C54         C  0.40015728  0.47813420  0.38219933     1.07800
Mn55       Mn  0.01949844  0.05174505  0.33427160     1.48600
O56         O  0.39482230  0.45294458  0.37161351    -0.86200
Mn57       Mn  0.44397144  0.40309268  0.33550736     1.49600
O58         O  0.00956825  0.40942639  0.30308760    -0.90100
C59         C  0.04062842  0.47829122  0.39085255     1.21000
C60         C  0.48359821  0.38857786  0.29189157     1.13000
Mn61       Mn  0.48525741  0.47721991  0.36858748     1.81000
O62         O  0.48323640  0.03499062  0.30551296    -0.95200
Mn63       Mn  0.02479434  0.44308727  0.33605905     1.49300
C64         C  0.48270833  0.39078719  0.38215203     1.09600
Mn65       Mn  0.45037998  0.01648395  0.33508655     1.49900
C66         C  0.39741407  0.47746794  0.29284605     1.12500
O67         O  0.42626649  0.41852536  0.36469657    -1.01000
O68         O  0.05160507  0.06882963  0.29951075    -0.90700
C69         C  0.43133503  0.42303494  0.39196183     1.23800
O70         O  0.48483095  0.03590950  0.36256754    -1.01400
O71         O  0.07609818  0.04335720  0.30014816    -0.88800
O72         O  0.41641096  0.00050931  0.30197427    -0.88400
O73         O  0.45831266  0.38463906  0.30078218    -0.88500
Mn74       Mn  0.05860847  0.01117424  0.33461183     1.47900
O75         O  0.48288571  0.00671397  0.27039137    -0.76900
C76         C  0.42962788  0.42237970  0.28008065     1.16800
O77         O  0.01745041  0.47817028  0.39953184    -0.75700
O78         O  0.01526423  0.47611773  0.27072747    -0.75300
Mn79       Mn  0.41136442  0.43755871  0.33664202     1.51100
O80         O  0.41880815  0.00212749  0.37023762    -0.87600
O81         O  0.04292003  0.47589679  0.30628646    -0.95200
O82         O  0.39313502  0.45261860  0.30330532    -0.90200
C83         C  0.03843278  0.47587306  0.27897890     1.14600
C84         C  0.46545354  0.13353029  0.45863222     0.14000
C85         C  0.48285331  0.12097541  0.46786863     0.01000
C86         C  0.49974339  0.13098837  0.49485094     0.16000
C87         C  0.49743911  0.15278004  0.01288442     0.25400
C88         C  0.48149093  0.16673904  0.00276681    -0.41000
C89         C  0.46524679  0.15615099  0.47597475     0.32400
C90         C  0.48434101  0.09832815  0.44861345     0.01100
F91         F  0.51390973  0.11766056  0.00526640    -0.13300
F92         F  0.44786957  0.16756033  0.46664151    -0.13800
C93         C  0.99955323  0.10786001  0.41995680     0.16000
C94         C  0.00003045  0.08624272  0.40130000     0.25400
C95         C  0.48626060  0.05515259  0.41093774    -0.40900
C96         C  0.47473793  0.04753511  0.44074944     0.32400
C97         C  0.47372904  0.06902725  0.45944376     0.14100
F98         F  0.01110374  0.13631387  0.40928657    -0.13300
F99         F  0.46331828  0.01908133  0.45131729    -0.13800
F100        F  0.01208994  0.09452112  0.37293222    -0.16100
F101        F  0.46154967  0.06105901  0.48776557    -0.14600
F102        F  0.44865591  0.12382334  0.43276994    -0.14600
F103        F  0.51447299  0.16235849  0.03857120    -0.16000
C104        C  0.48824295  0.31206540  0.50228675     0.14000
C105        C  0.48139202  0.30873270  0.47106377     0.01000
C106        C  0.47599513  0.28249283  0.45598302     0.16000
C107        C  0.47695792  0.25958288  0.47188790     0.25400
C108        C  0.48346082  0.26244216  0.50346427    -0.41000
C109        C  0.47592902  0.28274289  0.01797296     0.32400
C110        C  0.48032446  0.33254508  0.45345983     0.01100
F111        F  0.96836105  0.27881610  0.42802327    -0.13300
F112        F  0.46661732  0.27840027  0.04747972    -0.13800
C113        C  0.50651934  0.36022586  0.44864989     0.16000
C114        C  0.50696333  0.38006957  0.42661317     0.25400
C115        C  0.48122498  0.37229938  0.40882402    -0.40900
C116        C  0.45417198  0.34581927  0.41614525     0.32400
C117        C  0.45384923  0.32615196  0.43819822     0.14100
F118        F  0.53216628  0.36722243  0.46391100    -0.13300
F119        F  0.42822193  0.33801481  0.40106711    -0.13800
F120        F  0.53283689  0.40643320  0.42221013    -0.16100
F121        F  0.42793278  0.30004625  0.44366850    -0.14600
F122        F  0.49363938  0.33738737  0.51720589    -0.14600
F123        F  0.96999831  0.23461614  0.45891721    -0.16000
C124        C  0.46738626  0.11378779  0.17020104     0.14000
C125        C  0.48514670  0.11895722  0.19633810     0.01000
C126        C  0.50593047  0.14856746  0.20484364     0.16000
C127        C  0.50839570  0.17274372  0.18801331     0.25400
C128        C  0.49016450  0.16775750  0.16225076    -0.41000
C129        C  0.46999336  0.13802331  0.15312934     0.32400
C130        C  0.48143220  0.09382441  0.21577185     0.01100
F131        F  0.52376857  0.15401495  0.22966120    -0.13300
F132        F  0.45180899  0.13243346  0.12858311    -0.13800
C133        C  0.99691835  0.07810928  0.20727419     0.16000
C134        C  0.99522317  0.05587120  0.22703227     0.25400
C135        C  0.48046512  0.05046276  0.25595506    -0.40900
C136        C  0.46990709  0.06966605  0.26546332     0.32400
C137        C  0.47026298  0.09096417  0.24551252     0.14100
F138        F  0.00991406  0.08179185  0.17945535    -0.13300
F139        F  0.45932148  0.06801451  0.29422384    -0.13800
F140        F  0.00673721  0.03857152  0.21783802    -0.16100
F141        F  0.46011402  0.10924172  0.25539652    -0.14600
F142        F  0.44673161  0.08534364  0.16195991    -0.14600
F143        F  0.52885515  0.20108693  0.19675253    -0.16000
C144        C  0.00870913  0.29576149  0.21287579     0.14000
C145        C  0.49145866  0.30844816  0.20389766     0.01000
C146        C  0.48064824  0.30377290  0.17378473     0.16000
C147        C  0.48221277  0.28247275  0.15512128     0.25400
C148        C  0.49440239  0.26519378  0.16641518    -0.41000
C149        C  0.01038390  0.27447080  0.19449316     0.32400
C150        C  0.48893704  0.33013203  0.22418894     0.01100
F151        F  0.46849758  0.31983447  0.16249030    -0.13300
F152        F  0.02563371  0.26119301  0.20514663    -0.13800
C153        C  0.01639082  0.35799535  0.23263975     0.16000
C154        C  0.01442638  0.37707015  0.25402830     0.25400
C155        C  0.48495523  0.36918595  0.26719938    -0.40900
C156        C  0.45888050  0.34309642  0.25697582     0.32400
C157        C  0.46092744  0.32382924  0.23568927     0.14100
F158        F  0.04370493  0.36505126  0.22136116    -0.13300
F159        F  0.43144205  0.33556485  0.26822273    -0.13800
F160        F  0.04024164  0.40205716  0.26252317    -0.16100
F161        F  0.43562959  0.29833108  0.22715985    -0.14600
F162        F  0.02154150  0.30176137  0.24100963    -0.14600
F163        F  0.47086758  0.27816253  0.12638396    -0.16000
C164        C  0.36700577  0.50656162  0.44223272     0.14000
C165        C  0.34182423  0.47979205  0.45192347     0.01000
C166        C  0.33750270  0.45230973  0.44105329     0.16000
C167        C  0.35711228  0.45161245  0.41941224     0.25400
C168        C  0.38148089  0.47856685  0.40803586    -0.41000
C169        C  0.38671706  0.50604065  0.42064296     0.32400
C170        C  0.31849385  0.48073408  0.47077685     0.01100
F171        F  0.31327278  0.42613529  0.45013726    -0.13300
F172        F  0.41037897  0.53262489  0.41154921    -0.13800
C173        C  0.30228447  0.49349984  0.45862316     0.16000
C174        C  0.27946140  0.49378453  0.47547543     0.25400
C175        C  0.27236311  0.48139099  0.50513748    -0.40900
C176        C  0.28965550  0.97080320  0.01708837     0.32400
C177        C  0.31200241  0.97125534  0.49960747     0.14100
F178        F  0.30815429  0.50515632  0.42995759    -0.13300
F179        F  0.28329299  0.95789458  0.04517181    -0.13800
F180        F  0.26450672  0.50643492  0.46258673    -0.16100
F181        F  0.32801776  0.95938802  0.51170629    -0.14600
F182        F  0.37202322  0.53336959  0.45311651    -0.14600
F183        F  0.35137817  0.42446726  0.40886120    -0.16000
C184        C  0.10638330  0.47316743  0.42185192     0.15100
C185        C  0.10920887  0.48453349  0.45155069     0.01000
C186        C  0.08860929  0.49294265  0.46176723     0.16000
C187        C  0.06573287  0.49029623  0.44239901     0.25400
C188        C  0.06338508  0.47955748  0.41238064    -0.41000
C189        C  0.08395128  0.47093145  0.40241126     0.32400
C190        C  0.13357763  0.48711986  0.47159312     0.01100
F191        F  0.09110302  0.50441270  0.49022198    -0.13300
F192        F  0.08213191  0.45977136  0.37389091    -0.13800
C193        C  0.16179874  0.00271009  0.46266725     0.16000
C194        C  0.18498941  0.00324095  0.47968499     0.25400
C195        C  0.17895463  0.48461875  0.00436002    -0.40900
C196        C  0.14972077  0.47195980  0.01648490     0.32400
C197        C  0.12693516  0.47218962  0.49983531     0.14100
F198        F  0.16859067  0.01870367  0.43629361    -0.13300
F199        F  0.14305810  0.45867020  0.04438659    -0.13800
F200        F  0.21353033  0.01959779  0.46911872    -0.16100
F201        F  0.09816946  0.45647285  0.50993579    -0.14600
F202        F  0.12518083  0.46374864  0.41173284    -0.14600
F203        F  0.04651538  0.49908042  0.45272449    -0.16000
C204        C  0.31812897  0.48760788  0.17659194     0.14000
C205        C  0.31090122  0.47384342  0.20548608     0.01000
C206        C  0.28081389  0.45868414  0.21500161     0.16000
C207        C  0.25835118  0.45739338  0.19614390     0.25400
C208        C  0.26546869  0.47160116  0.16736585    -0.41000
C209        C  0.29562209  0.48644687  0.15763388     0.32400
C210        C  0.33445873  0.47505901  0.22592723     0.01100
F211        F  0.27320544  0.44563793  0.24301169    -0.13300
F212        F  0.30354320  0.50067247  0.13023129    -0.13800
C213        C  0.35836825  0.50268575  0.23592351     0.16000
C214        C  0.37926358  0.50361737  0.25703163     0.25400
C215        C  0.37656652  0.47681498  0.26877667    -0.40900
C216        C  0.35276995  0.44915067  0.25805935     0.32400
C217        C  0.33214398  0.44837673  0.23685335     0.14100
F218        F  0.35825487  0.02439968  0.22455807    -0.13300
F219        F  0.34885107  0.42258107  0.26842489    -0.13800
F220        F  0.39967638  0.02757783  0.26454755    -0.16100
F221        F  0.30958626  0.42135681  0.22712389    -0.14600
F222        F  0.34699852  0.50211414  0.16670208    -0.14600
F223        F  0.22953248  0.44201459  0.20614298    -0.16000
C224        C  0.07454480  0.46826179  0.20635993     0.14000
C225        C  0.10326412  0.47601266  0.21707009     0.01000
C226        C  0.11098709  0.48528943  0.24744833     0.16000
C227        C  0.09004418  0.48565337  0.26724213     0.25400
C228        C  0.06079346  0.47690076  0.25702161    -0.41000
C229        C  0.05342975  0.46874779  0.22617718     0.32400
C230        C  0.12504676  0.47334987  0.19729940     0.01100
F231        F  0.13897192  0.49395976  0.25801703    -0.13300
F232        F  0.02557101  0.46027738  0.21544034    -0.13800
C233        C  0.13659517  0.49107685  0.17095793     0.16000
C234        C  0.15903863  0.49008541  0.15386783     0.25400
C235        C  0.17041785  0.47154623  0.16310944    -0.40900
C236        C  0.15818951  0.45323905  0.18903182     0.32400
C237        C  0.13566393  0.45407931  0.20588960     0.14100
F238        F  0.12651761  0.00888279  0.16293084    -0.13300
F239        F  0.16794978  0.43437966  0.19801686    -0.13800
F240        F  0.16943955  0.00578380  0.12964722    -0.16100
F241        F  0.12434904  0.43624676  0.23089756    -0.14600
F242        F  0.06664850  0.45923504  0.17701622    -0.14600
F243        F  0.09860384  0.49472956  0.29648933    -0.16000
C244        C  0.40084723  0.37710272  0.46442190     0.14000
C245        C  0.37196229  0.35527890  0.45489678     0.01000
C246        C  0.36219754  0.35687509  0.42541193     0.16000
C247        C  0.38129065  0.37931285  0.40530546     0.25400
C248        C  0.41061942  0.40081595  0.41434830    -0.41000
C249        C  0.42008141  0.39978096  0.44430417     0.32400
C250        C  0.35167925  0.33052430  0.47526997     0.01100
F251        F  0.33396285  0.33663583  0.41610034    -0.13300
F252        F  0.44821726  0.42001460  0.45381980    -0.13800
C253        C  0.34146095  0.33646965  0.50263018     0.16000
C254        C  0.31634273  0.31357815  0.01716069     0.25400
C255        C  0.30499296  0.28385442  0.00712888    -0.40900
C256        C  0.31778457  0.27715088  0.48270027     0.32400
C257        C  0.34037616  0.30067200  0.46595117     0.14100
F258        F  0.34772806  0.36606484  0.00928327    -0.13300
F259        F  0.30685689  0.24855489  0.47276788    -0.13800
F260        F  0.30443861  0.31957192  0.04196359    -0.16100
F261        F  0.35070838  0.29440525  0.44009093    -0.14600
F262        F  0.41069657  0.37589844  0.49286458    -0.14600
F263        F  0.37091717  0.37995353  0.37694756    -0.16000
C264        C  0.13599381  0.09783788  0.43769120     0.14000
C265        C  0.13805483  0.12543684  0.44403743     0.01000
C266        C  0.11789525  0.13257060  0.43021944     0.16000
C267        C  0.09612195  0.11254675  0.40979964     0.25400
C268        C  0.09445450  0.08507990  0.40240435    -0.41000
C269        C  0.11444932  0.07780049  0.41711938     0.32400
C270        C  0.16219866  0.14752008  0.46391744     0.01100
F271        F  0.11978272  0.15933650  0.43604995    -0.13300
F272        F  0.11361875  0.05150484  0.41138166    -0.13800
C273        C  0.18863434  0.17038783  0.45089137     0.16000
C274        C  0.21139959  0.19190106  0.46934523     0.25400
C275        C  0.20816775  0.19103831  0.50153210    -0.40900
C276        C  0.18617358  0.16329162  0.01286930     0.32400
C277        C  0.15874593  0.14617001  0.49571585     0.14100
F278        F  0.19238753  0.17189878  0.42011149    -0.13300
F279        F  0.18855537  0.15629588  0.04223736    -0.13800
F280        F  0.23645001  0.21361616  0.45533272    -0.16100
F281        F  0.13321051  0.12405867  0.50860790    -0.14600
F282        F  0.15545247  0.09066494  0.45081790    -0.14600
F283        F  0.07741940  0.12065128  0.39659012    -0.16000
C284        C  0.39641095  0.37428643  0.20921791     0.14000
C285        C  0.36748213  0.35327039  0.21955855     0.01000
C286        C  0.35901238  0.35565914  0.24940860     0.16000
C287        C  0.37912867  0.37827920  0.26878093     0.25400
C288        C  0.40814234  0.39949852  0.25857908    -0.41000
C289        C  0.41655859  0.39734803  0.22851718     0.32400
C290        C  0.34573055  0.32891346  0.19946672     0.01100
F291        F  0.33096458  0.33619527  0.25978328    -0.13300
F292        F  0.44454917  0.41687562  0.21810886    -0.13800
C293        C  0.33165949  0.29893341  0.20942852     0.16000
C294        C  0.30856031  0.27624618  0.19231670     0.25400
C295        C  0.29961756  0.28298093  0.16448716    -0.40900
C296        C  0.31453192  0.31277766  0.15384630     0.32400
C297        C  0.33723830  0.33561498  0.17135706     0.14100
F298        F  0.34009052  0.29165851  0.23599321    -0.13300
F299        F  0.30603709  0.32007260  0.12734418    -0.13800
F300        F  0.29499470  0.24762454  0.20295888    -0.16100
F301        F  0.34988267  0.36445914  0.16158886    -0.14600
F302        F  0.40540337  0.37200040  0.18071114    -0.14600
F303        F  0.36998685  0.37939322  0.29759341    -0.16000
C304        C  0.13954736  0.10480346  0.23784094     0.14000
C305        C  0.13172548  0.12260651  0.22036945     0.01000
C306        C  0.10358645  0.12007761  0.22432973     0.16000
C307        C  0.08372838  0.10056129  0.24635303     0.25400
C308        C  0.09160929  0.08287518  0.26443302    -0.41000
C309        C  0.11962676  0.08488513  0.25946519     0.32400
C310        C  0.15449830  0.14643463  0.20096060     0.01100
F311        F  0.09592702  0.13750797  0.20777696    -0.13300
F312        F  0.12859541  0.06883828  0.27661009    -0.13800
C313        C  0.15575129  0.14222804  0.16950344     0.16000
C314        C  0.17873626  0.16464401  0.15178057     0.25400
C315        C  0.20085676  0.19161564  0.16546155    -0.40900
C316        C  0.19874989  0.19572649  0.19712041     0.32400
C317        C  0.17589833  0.17330673  0.21455798     0.14100
F318        F  0.13512109  0.11613278  0.15615761    -0.13300
F319        F  0.21877346  0.22141179  0.21156975    -0.13800
F320        F  0.17965110  0.15949762  0.12151309    -0.16100
F321        F  0.17480350  0.17767970  0.24501357    -0.14600
F322        F  0.16708867  0.10767356  0.23479515    -0.14600
F323        F  0.05719937  0.09964930  0.25043191    -0.16000
C324        C  0.22478522  0.21623773  0.64901073     0.81600
N325        N  0.22573647  0.21548223  0.61793453    -0.76700
C326        C  0.24998370  0.23700461  0.60256684     0.84000
N327        N  0.27322148  0.25930036  0.61830667    -0.76700
C328        C  0.27260557  0.26008785  0.64917627     0.84100
N329        N  0.24846340  0.23851377  0.66424890    -0.78400
C330        C  0.23243062  0.21446340  0.52106695     0.81600
N331        N  0.22972039  0.21448742  0.55205331    -0.76700
C332        C  0.25200161  0.23650582  0.56915749     0.84000
N333        N  0.27687225  0.25851979  0.55525328    -0.76700
C334        C  0.27988819  0.25861610  0.52457262     0.84100
N335        N  0.25766020  0.23661568  0.50775402    -0.78400
C336        C  0.24039062  0.47019736  0.65001109     0.81600
N337        N  0.24271742  0.47327118  0.61907814    -0.76700
C338        C  0.22101283  0.47468119  0.60268164     0.84000
N339        N  0.19714609  0.47331184  0.61733347    -0.76700
C340        C  0.19454683  0.47010947  0.64809367     0.84100
N341        N  0.21620043  0.46856801  0.66421058    -0.78400
C342        C  0.24760200  0.48131958  0.52270354     0.81600
N343        N  0.22603715  0.48415383  0.50775280    -0.76700
C344        C  0.20309159  0.48395290  0.52311853     0.84000
N345        N  0.20172450  0.48076780  0.55391237    -0.76700
C346        C  0.22311332  0.47802711  0.56929767     0.84100
N347        N  0.24601025  0.47826350  0.55364576    -0.78400
C348        C  0.49236003  0.24123654  0.64701093     0.81600
N349        N  0.49055680  0.24041996  0.61601135    -0.76700
C350        C  0.48886176  0.21682452  0.60028898     0.84000
N351        N  0.48854901  0.19380922  0.61567977    -0.76700
C352        C  0.49033065  0.19433666  0.64661406     0.84100
N353        N  0.49232917  0.21814295  0.66207315    -0.78400
C354        C  0.48423445  0.23784132  0.52044631     0.81600
N355        N  0.48625579  0.23847120  0.55139568    -0.76700
C356        C  0.48697826  0.21602039  0.56682570     0.84000
N357        N  0.48576204  0.19266254  0.55115750    -0.76700
C358        C  0.48358037  0.19168305  0.52022738     0.84100
N359        N  0.48283220  0.21426555  0.50513717    -0.78400
O360        O  0.00987366  0.41236300  0.86936280    -0.86800
C361        C  0.07068350  0.06345362  0.79013634     1.13200
O362        O  0.48588755  0.44697126  0.83532927    -1.34600
O363        O  0.07643611  0.04296302  0.86829797    -0.88300
O364        O  0.46084809  0.38699454  0.87003039    -0.89000
O365        O  0.45614455  0.44798499  0.90010594    -0.77800
O366        O  0.04391401  0.47797286  0.86273562    -0.99900
C367        C  0.48606118  0.03230749  0.89096659     1.23300
O368        O  0.45515142  0.47852974  0.83556724    -1.34800
Mn369      Mn  0.48563102  0.47791646  0.80205281     1.82100
O370        O  0.48552698  0.00889767  0.89974344    -0.76900
O371        O  0.05185857  0.06826108  0.86953885    -0.86300
C372        C  0.48364296  0.03146563  0.77922219     1.14400
C373        C  0.07237194  0.06343989  0.87922616     1.09100
O374        O  0.45385664  0.44654463  0.77141181    -0.77800
O375        O  0.01560242  0.00824160  0.83523406    -1.31500
O376        O  0.42685633  0.41955698  0.80772229    -0.97000
C377        C  0.40141097  0.47938860  0.88186104     1.07800
Mn378      Mn  0.01850734  0.05069824  0.83550507     1.48600
O379        O  0.39633024  0.45415323  0.87169341    -0.86200
Mn380      Mn  0.44587379  0.40452918  0.83571703     1.49600
O381        O  0.00892876  0.41134591  0.80101082    -0.90100
C382        C  0.04008786  0.47833369  0.89010805     1.21000
C383        C  0.48531287  0.39090426  0.79068423     1.13000
Mn384      Mn  0.48669241  0.47873988  0.86832025     1.81000
O385        O  0.48454900  0.03635846  0.80654215    -0.95200
Mn386      Mn  0.02450549  0.44422730  0.83459951     1.49300
C387        C  0.48592587  0.39274980  0.88124800     1.09600
Mn388      Mn  0.45150365  0.01757204  0.83591073     1.49900
C389        C  0.39842054  0.47810894  0.79263769     1.12500
O390        O  0.42816869  0.42009640  0.86476069    -1.01000
O391        O  0.05079834  0.06843804  0.80111210    -0.90700
C392        C  0.43284431  0.42455799  0.89203305     1.23800
O393        O  0.48579997  0.03612043  0.86362365    -1.01400
O394        O  0.07515610  0.04289190  0.80019298    -0.88800
O395        O  0.41773610  0.00253222  0.80268000    -0.88400
O396        O  0.46007211  0.38612906  0.80075818    -0.88500
Mn397      Mn  0.05774408  0.01029446  0.83448137     1.47900
O398        O  0.48396242  0.00835410  0.77095211    -0.76900
C399        C  0.43062074  0.42349351  0.78033950     1.16800
O400        O  0.01722940  0.47880601  0.89883742    -0.75700
O401        O  0.01489204  0.47717642  0.77006263    -0.75300
Mn402      Mn  0.41279316  0.43869378  0.83679694     1.51100
O403        O  0.41983373  0.00287761  0.87093749    -0.87600
O404        O  0.04294406  0.47739915  0.80544111    -0.95200
O405        O  0.39423745  0.45342165  0.80348145    -0.90200
C406        C  0.03824576  0.47728545  0.77818320     1.14600
C407        C  0.46452894  0.13366407  0.95847932     0.14000
C408        C  0.48083361  0.12010953  0.96845158     0.01000
C409        C  0.49716567  0.12973552  0.99579984     0.16000
C410        C  0.49950214  0.15356065  0.51231614     0.25400
C411        C  0.48248505  0.16657520  0.50287441    -0.41000
C412        C  0.46492725  0.15685857  0.97540722     0.32400
C413        C  0.48250624  0.09741107  0.94927608     0.01100
F414        F  0.51735923  0.11967228  0.50361248    -0.13300
F415        F  0.44886039  0.16941677  0.96515452    -0.13800
C416        C  0.99128821  0.10371425  0.92027758     0.16000
C417        C  0.99396777  0.08315511  0.90188037     0.25400
C418        C  0.48624659  0.05477668  0.91207888    -0.40900
C419        C  0.47430492  0.04698289  0.94173930     0.32400
C420        C  0.47235470  0.06817643  0.96017250     0.14100
F421        F  0.00075600  0.13176317  0.90939841    -0.13300
F422        F  0.46341038  0.01863652  0.95240566    -0.13800
F423        F  0.00597836  0.09206890  0.87356733    -0.16100
F424        F  0.45978740  0.05997371  0.98831563    -0.14600
F425        F  0.44828620  0.12445458  0.93224235    -0.14600
F426        F  0.51696295  0.16358850  0.53768798    -0.16000
C427        C  0.47626855  0.30626419  0.00153830     0.14000
C428        C  0.48542078  0.31115458  0.97088733     0.01000
C429        C  0.49387383  0.29211835  0.95675098     0.16000
C430        C  0.49357031  0.26871054  0.97297364     0.25400
C431        C  0.48458321  0.26363915  0.00384522    -0.41000
C432        C  0.48924679  0.28915072  0.51842632     0.32400
C433        C  0.48612277  0.33574119  0.95290665     0.01100
F434        F  0.99841870  0.29193748  0.92476899    -0.13300
F435        F  0.49614860  0.29340016  0.54860962    -0.13800
C436        C  0.51319874  0.35753856  0.93975431     0.16000
C437        C  0.51336571  0.37700145  0.91752360     0.25400
C438        C  0.48624485  0.37488377  0.90778125    -0.40900
C439        C  0.45941250  0.35464858  0.92305620     0.32400
C440        C  0.45941980  0.33526388  0.94543689     0.14100
F441        F  0.53942960  0.35901349  0.94749186    -0.13300
F442        F  0.43292675  0.35278258  0.91574588    -0.13800
F443        F  0.54004318  0.39687685  0.90464422    -0.16100
F444        F  0.43304648  0.31477418  0.95842260    -0.14600
F445        F  0.46797677  0.32444074  0.01559536    -0.14600
F446        F  0.99905171  0.24781631  0.95714587    -0.16000
C447        C  0.46820639  0.11508424  0.67099087     0.14000
C448        C  0.48511985  0.12056588  0.69783925     0.01000
C449        C  0.50456710  0.15033111  0.70702010     0.16000
C450        C  0.50660731  0.17427759  0.69008141     0.25400
C451        C  0.48930718  0.16893500  0.66349563    -0.41000
C452        C  0.47037521  0.13908764  0.65383905     0.32400
C453        C  0.48195073  0.09554840  0.71719244     0.01100
F454        F  0.52164569  0.15616721  0.73251431    -0.13300
F455        F  0.45299731  0.13309179  0.62855333    -0.13800
C456        C  0.99406055  0.07679760  0.70789780     0.16000
C457        C  0.99299744  0.05484999  0.72763716     0.25400
C458        C  0.48174247  0.05233173  0.75713264    -0.40900
C459        C  0.47088963  0.07123056  0.76683073     0.32400
C460        C  0.47078434  0.09238228  0.74698231     0.14100
F461        F  0.00513398  0.07934992  0.67925202    -0.13300
F462        F  0.46030380  0.06931329  0.79563149    -0.13800
F463        F  0.00321612  0.03669318  0.71761287    -0.16100
F464        F  0.46003862  0.11012672  0.75696928    -0.14600
F465        F  0.44879751  0.08649854  0.66203172    -0.14600
F466        F  0.52587202  0.20275193  0.69946849    -0.16000
C467        C  0.00202707  0.29277118  0.71457866     0.14000
C468        C  0.49143437  0.31107042  0.70080610     0.01000
C469        C  0.47818411  0.30403794  0.67162703     0.16000
C470        C  0.47917067  0.28199334  0.65362616     0.25400
C471        C  0.49334186  0.26645329  0.66456655    -0.41000
C472        C  0.00370008  0.27105888  0.69698523     0.32400
C473        C  0.48959947  0.33346684  0.72084052     0.01100
F474        F  0.46431583  0.31854844  0.66052722    -0.13300
F475        F  0.01548714  0.25533133  0.70997085    -0.13800
C476        C  0.01506624  0.35574330  0.73519762     0.16000
C477        C  0.01356590  0.37504921  0.75654121     0.25400
C478        C  0.48650381  0.37202250  0.76530037    -0.40900
C479        C  0.46011645  0.34868412  0.75185999     0.32400
C480        C  0.46169735  0.32960580  0.72995480     0.14100
F481        F  0.04222047  0.35892240  0.72838320    -0.13300
F482        F  0.43265800  0.34370866  0.76034362    -0.13800
F483        F  0.03965382  0.39609348  0.76959901    -0.16100
F484        F  0.43583947  0.30648641  0.71866498    -0.14600
F485        F  0.01117105  0.29649858  0.74415534    -0.14600
F486        F  0.46536656  0.27521439  0.62596952    -0.16000
C487        C  0.36831637  0.50809420  0.94153974     0.14000
C488        C  0.34326793  0.48133776  0.95144713     0.01000
C489        C  0.33899533  0.45380829  0.94080254     0.16000
C490        C  0.35855479  0.45303249  0.91918533     0.25400
C491        C  0.38279630  0.47995196  0.90761757    -0.41000
C492        C  0.38795822  0.50749965  0.91994302     0.32400
C493        C  0.31994305  0.48230459  0.97020682     0.01100
F494        F  0.31483964  0.42765649  0.95005550    -0.13300
F495        F  0.41144707  0.53406985  0.91054510    -0.13800
C496        C  0.30358814  0.49482740  0.95786478     0.16000
C497        C  0.28063944  0.49496996  0.97459054     0.25400
C498        C  0.27351698  0.48259255  0.00424195    -0.40900
C499        C  0.29001176  0.97243788  0.51741200     0.32400
C500        C  0.31228063  0.97028431  0.99984537     0.14100
F501        F  0.30942464  0.50634954  0.92914119    -0.13300
F502        F  0.28508792  0.96108594  0.54616885    -0.13800
F503        F  0.26561180  0.50750156  0.96162810    -0.16100
F504        F  0.32751668  0.95751230  0.01180682    -0.14600
F505        F  0.37323410  0.53494540  0.95218049    -0.14600
F506        F  0.35286181  0.42584592  0.90880020    -0.16000
C507        C  0.10365544  0.46950708  0.92105206     0.15100
C508        C  0.10757547  0.48175371  0.95049082     0.01000
C509        C  0.08804985  0.49157558  0.96069399     0.16000
C510        C  0.06535574  0.48964249  0.94150788     0.25400
C511        C  0.06224794  0.47840528  0.91162481    -0.41000
C512        C  0.08156999  0.46820215  0.90172046     0.32400
C513        C  0.13234217  0.48439520  0.97000264     0.01100
F514        F  0.09154783  0.50393339  0.98884280    -0.13300
F515        F  0.07907864  0.45673697  0.87323623    -0.13800
C516        C  0.16251109  0.00078259  0.95954034     0.16000
C517        C  0.18541537  0.00076802  0.97659402     0.25400
C518        C  0.17943260  0.48636352  0.50625888    -0.40900
C519        C  0.14967394  0.47199314  0.51714743     0.32400
C520        C  0.12661012  0.47163124  0.99934107     0.14100
F521        F  0.16916131  0.01433438  0.93174842    -0.13300
F522        F  0.14219731  0.45638424  0.54377488    -0.13800
F523        F  0.21345127  0.01419939  0.96453613    -0.16100
F524        F  0.09834638  0.45763712  0.01089973    -0.14600
F525        F  0.12122081  0.45859248  0.91096074    -0.14600
F526        F  0.04722489  0.49980404  0.95177346    -0.16000
C527        C  0.31717939  0.48614634  0.67727471     0.14000
C528        C  0.31038657  0.47306276  0.70648574     0.01000
C529        C  0.28043734  0.45816702  0.71647695     0.16000
C530        C  0.25768845  0.45640993  0.69772422     0.25400
C531        C  0.26439348  0.46994377  0.66860623    -0.41000
C532        C  0.29441783  0.48458365  0.65846298     0.32400
C533        C  0.33426622  0.47459076  0.72665297     0.01100
F534        F  0.27324096  0.44581313  0.74481468    -0.13300
F535        F  0.30199304  0.49820798  0.63074562    -0.13800
C536        C  0.35876098  0.50235960  0.73547832     0.16000
C537        C  0.38014830  0.50362544  0.75612923     0.25400
C538        C  0.37728509  0.47704106  0.76869106    -0.40900
C539        C  0.35296032  0.44921546  0.75904609     0.32400
C540        C  0.33188852  0.44809381  0.73823771     0.14100
F541        F  0.35964710  0.02773253  0.72625233    -0.13300
F542        F  0.34894735  0.42283227  0.77010638    -0.13800
F543        F  0.40087608  0.03031407  0.76626009    -0.16100
F544        F  0.30885902  0.42091615  0.72952736    -0.14600
F545        F  0.34588197  0.50035175  0.66690040    -0.14600
F546        F  0.22901384  0.44124447  0.70816338    -0.16000
C547        C  0.07174764  0.46314557  0.70732139     0.14000
C548        C  0.10151232  0.47419449  0.71685513     0.01000
C549        C  0.11063537  0.48759094  0.74565380     0.16000
C550        C  0.09014586  0.48915069  0.76515557     0.25400
C551        C  0.06002614  0.47746298  0.75614053    -0.41000
C552        C  0.05108126  0.46482725  0.72682484     0.32400
C553        C  0.12318312  0.47111505  0.69747493     0.01100
F554        F  0.13950312  0.49904110  0.75496492    -0.13300
F555        F  0.02215634  0.45295607  0.71758220    -0.13800
C556        C  0.13484022  0.48864453  0.67108224     0.16000
C557        C  0.15756794  0.48777080  0.65446553     0.25400
C558        C  0.16901602  0.46941213  0.66417346    -0.40900
C559        C  0.15672434  0.45135118  0.69026786     0.32400
C560        C  0.13399737  0.45221838  0.70675826     0.14100
F561        F  0.12468345  0.00818490  0.66050585    -0.13300
F562        F  0.16663573  0.43276528  0.69978416    -0.13800
F563        F  0.16752589  0.00445107  0.62789590    -0.16100
F564        F  0.12275719  0.43490762  0.73211568    -0.14600
F565        F  0.06253407  0.44984878  0.67958871    -0.14600
F566        F  0.09987448  0.50208163  0.79298981    -0.16000
C567        C  0.39925318  0.37989633  0.96483037     0.14000
C568        C  0.37133221  0.35701772  0.95410655     0.01000
C569        C  0.36303873  0.35774620  0.92375372     0.16000
C570        C  0.38274639  0.38014010  0.90397461     0.25400
C571        C  0.41131389  0.40253881  0.91415730    -0.41000
C572        C  0.41912642  0.40257595  0.94501458     0.32400
C573        C  0.35058297  0.33199812  0.97404933     0.01100
F574        F  0.33564923  0.33662431  0.91320500    -0.13300
F575        F  0.44631330  0.42385091  0.95577743    -0.13800
C576        C  0.33877871  0.33751001  0.00053182     0.16000
C577        C  0.31907217  0.31288707  0.51966422     0.25400
C578        C  0.30634392  0.28309815  0.50924601    -0.40900
C579        C  0.31767957  0.27834162  0.98133799     0.32400
C580        C  0.34051501  0.30221961  0.96512049     0.14100
F581        F  0.35183480  0.36518514  0.51184184    -0.13300
F582        F  0.30789536  0.24982675  0.97178850    -0.13800
F583        F  0.30851843  0.31938898  0.54520213    -0.16100
F584        F  0.35241292  0.29634622  0.94022219    -0.14600
F585        F  0.40764739  0.37969768  0.99418469    -0.14600
F586        F  0.37371182  0.37972153  0.87473459    -0.16000
C587        C  0.14014069  0.10167784  0.93201394     0.14000
C588        C  0.13655900  0.12463490  0.94462701     0.01000
C589        C  0.11083313  0.12618694  0.93769618     0.16000
C590        C  0.08926584  0.10556101  0.91751870     0.25400
C591        C  0.09330709  0.08316493  0.90350863    -0.41000
C592        C  0.11874151  0.08103039  0.91176632     0.32400
C593        C  0.16031624  0.14770893  0.96407195     0.01100
F594        F  0.10683387  0.14801210  0.95022529    -0.13300
F595        F  0.12357307  0.05955204  0.89970508    -0.13800
C596        C  0.18041019  0.17595285  0.95184169     0.16000
C597        C  0.20340624  0.19776456  0.96987807     0.25400
C598        C  0.20670716  0.19168799  0.00066229    -0.40900
C599        C  0.18140690  0.16774444  0.51441930     0.32400
C600        C  0.16328511  0.14147312  0.99461767     0.14100
F601        F  0.17792300  0.18227651  0.92223071    -0.13300
F602        F  0.17685919  0.16579112  0.54505833    -0.13800
F603        F  0.22209593  0.22496806  0.95718730    -0.16100
F604        F  0.14396318  0.11418006  0.00671305    -0.14600
F605        F  0.16496853  0.09990400  0.93853952    -0.14600
F606        F  0.06469216  0.10789969  0.91150296    -0.16000
C607        C  0.39492353  0.37594467  0.70969762     0.14000
C608        C  0.36617937  0.35513309  0.72071530     0.01000
C609        C  0.35855257  0.35778647  0.75085625     0.16000
C610        C  0.37941984  0.38017169  0.76993386     0.25400
C611        C  0.40834098  0.40096300  0.75913232    -0.41000
C612        C  0.41577942  0.39884703  0.72868073     0.32400
C613        C  0.34390331  0.33056716  0.70111284     0.01100
F614        F  0.33063998  0.33877393  0.76185239    -0.13300
F615        F  0.44350543  0.41823788  0.71756318    -0.13800
C616        C  0.32967232  0.30070430  0.71152322     0.16000
C617        C  0.30656965  0.27780837  0.69456741     0.25400
C618        C  0.29785372  0.28417444  0.66639943    -0.40900
C619        C  0.31286166  0.31383932  0.65538597     0.32400
C620        C  0.33545281  0.33690496  0.67278454     0.14100
F621        F  0.33808258  0.29370660  0.73826830    -0.13300
F622        F  0.30464257  0.32078366  0.62851119    -0.13800
F623        F  0.29290481  0.24932883  0.70561042    -0.16100
F624        F  0.34811488  0.36561269  0.66258990    -0.14600
F625        F  0.40310399  0.37357475  0.68083862    -0.14600
F626        F  0.37108700  0.38149043  0.79905749    -0.16000
C627        C  0.13622153  0.10376053  0.73543211     0.14000
C628        C  0.12913591  0.12358875  0.72082756     0.01000
C629        C  0.10210335  0.12258489  0.72756235     0.16000
C630        C  0.08260801  0.10245226  0.74940991     0.25400
C631        C  0.08996970  0.08297622  0.76498744    -0.41000
C632        C  0.11683784  0.08353578  0.75722749     0.32400
C633        C  0.15179896  0.14775367  0.70161486     0.01100
F634        F  0.09518359  0.14196170  0.71382325    -0.13300
F635        F  0.12526723  0.06564218  0.77170747    -0.13800
C636        C  0.15299700  0.14398632  0.67006417     0.16000
C637        C  0.17621697  0.16643993  0.65259340     0.25400
C638        C  0.19871363  0.19298319  0.66663080    -0.40900
C639        C  0.19652440  0.19677786  0.69835090     0.32400
C640        C  0.17336335  0.17435167  0.71552143     0.14100
F641        F  0.13201309  0.11830569  0.65634593    -0.13300
F642        F  0.21683053  0.22208867  0.71314644    -0.13800
F643        F  0.17694062  0.16173400  0.62218966    -0.16100
F644        F  0.17224837  0.17835290  0.74605287    -0.14600
F645        F  0.16266829  0.10497289  0.72952194    -0.14600
F646        F  0.05694517  0.10267173  0.75574946    -0.16000
C647        C  0.22532147  0.71407561  0.14881743     0.81600
N648        N  0.22636303  0.71373916  0.11778310    -0.76700
C649        C  0.25071187  0.73524574  0.10264749     0.84000
N650        N  0.27402864  0.75716938  0.11858346    -0.76700
C651        C  0.27333816  0.75753349  0.14948122     0.84100
N652        N  0.24903367  0.73594258  0.16440576    -0.78400
C653        C  0.23200595  0.71319342  0.02139354     0.81600
N654        N  0.23001222  0.71297793  0.05241706    -0.76700
C655        C  0.25235523  0.73516327  0.06925811     0.84000
N656        N  0.27659951  0.75771908  0.05506594    -0.76700
C657        C  0.27890987  0.75808192  0.02427649     0.84100
N658        N  0.25665362  0.73580586  0.00769159    -0.78400
C659        C  0.23910862  0.96785775  0.14903781     0.81600
N660        N  0.24167363  0.97173415  0.11821218    -0.76700
C661        C  0.22043987  0.97421882  0.10209904     0.84000
N662        N  0.19679724  0.97314413  0.11695017    -0.76700
C663        C  0.19399767  0.96922649  0.14764818     0.84100
N664        N  0.21519646  0.96660486  0.16345711    -0.78400
C665        C  0.24822931  0.98313542  0.02245815     0.81600
N666        N  0.22664395  0.98588671  0.00744852    -0.76700
C667        C  0.20330433  0.98505046  0.02266622     0.84000
N668        N  0.20159249  0.98124721  0.05341032    -0.76700
C669        C  0.22293625  0.97844850  0.06882602     0.84100
N670        N  0.24619882  0.97935479  0.05329315    -0.78400
C671        C  0.49618228  0.74296923  0.14753996     0.81600
N672        N  0.49307757  0.74167798  0.11660445    -0.76700
C673        C  0.49109289  0.71805335  0.10070646     0.84000
N674        N  0.49179398  0.69542921  0.11592313    -0.76700
C675        C  0.49497568  0.69642546  0.14676098     0.84100
N676        N  0.49721936  0.72028145  0.16236346    -0.78400
C677        C  0.48259388  0.73675721  0.02068572     0.81600
N678        N  0.48624980  0.73860559  0.05156707    -0.76700
C679        C  0.48736717  0.71640210  0.06728502     0.84000
N680        N  0.48500263  0.69236495  0.05195029    -0.76700
C681        C  0.48114802  0.69023837  0.02120132     0.84100
N682        N  0.47993900  0.71242270  0.00587773    -0.78400
O683        O  0.00974488  0.91235833  0.37082912    -0.86800
C684        C  0.07064155  0.56218336  0.28872960     1.13200
O685        O  0.48479617  0.94610309  0.33572205    -1.34600
O686        O  0.07786241  0.54356583  0.36697719    -0.88300
O687        O  0.46067860  0.88671647  0.37097334    -0.89000
O688        O  0.45518253  0.94740322  0.40040512    -0.77800
O689        O  0.04381003  0.97807786  0.36376311    -0.99900
C690        C  0.48659782  0.53216396  0.39095284     1.23300
O691        O  0.45316286  0.97680674  0.33566338    -1.34800
Mn692      Mn  0.48385349  0.97646181  0.30216311     1.82100
O693        O  0.48583932  0.50868362  0.39976836    -0.76900
O694        O  0.05306831  0.56860454  0.36845955    -0.86300
C695        C  0.48471813  0.53124775  0.27924317     1.14400
C696        C  0.07386692  0.56408481  0.37786686     1.09100
O697        O  0.45237932  0.94450732  0.27194780    -0.77800
O698        O  0.01646971  0.50809267  0.33489941    -1.31500
O699        O  0.42551883  0.91764656  0.30844561    -0.97000
C700        C  0.39885203  0.97745742  0.38176763     1.07800
Mn701      Mn  0.01924195  0.55050891  0.33481640     1.48600
O702        O  0.39390253  0.95212083  0.37192391    -0.86200
Mn703      Mn  0.44505750  0.90342563  0.33665219     1.49600
O704        O  0.00925921  0.91080439  0.30227493    -0.90100
C705        C  0.03993172  0.97854719  0.39112258     1.21000
C706        C  0.48475314  0.89006941  0.29145395     1.13000
Mn707      Mn  0.48524300  0.97789310  0.36833946     1.81000
O708        O  0.48535226  0.53596386  0.30657996    -0.95200
Mn709      Mn  0.02456910  0.94407945  0.33577756     1.49300
C710        C  0.48591411  0.89244486  0.38167561     1.09600
Mn711      Mn  0.45209385  0.51748770  0.33588356     1.49900
C712        C  0.39579718  0.97502244  0.29263864     1.12500
O713        O  0.42691577  0.91883698  0.36553426    -1.01000
O714        O  0.05108824  0.56751968  0.29999861    -0.90700
C715        C  0.43176789  0.92394564  0.39271558     1.23800
O716        O  0.48642133  0.53598070  0.36360965    -1.01400
O717        O  0.07531838  0.54182471  0.29896648    -0.88800
O718        O  0.41830760  0.50264211  0.30256304    -0.88400
O719        O  0.45952517  0.88493742  0.30197902    -0.88500
Mn720      Mn  0.05863408  0.51016851  0.33396899     1.47900
O721        O  0.48487756  0.50801286  0.27095902    -0.76900
C722        C  0.42938256  0.92132974  0.28103220     1.16800
O723        O  0.01699108  0.97898793  0.39963974    -0.75700
O724        O  0.01522901  0.97697797  0.27090921    -0.75300
Mn725      Mn  0.41099454  0.93666923  0.33725609     1.51100
O726        O  0.42029465  0.50298654  0.37107247    -0.87600
O727        O  0.04308671  0.97723589  0.30648772    -0.95200
O728        O  0.39198698  0.95051375  0.30357741    -0.90200
C729        C  0.03861253  0.97721958  0.27918670     1.14600
C730        C  0.46286400  0.63129843  0.45959195     0.14000
C731        C  0.48088830  0.61937538  0.46867159     0.01000
C732        C  0.49813255  0.62999047  0.49537898     0.16000
C733        C  0.49702725  0.65209910  0.01330165     0.25400
C734        C  0.47967949  0.66481898  0.00409165    -0.41000
C735        C  0.46249079  0.65396259  0.47677352     0.32400
C736        C  0.48296028  0.59700733  0.44942862     0.01100
F737        F  0.51570976  0.61900103  0.00408270    -0.13300
F738        F  0.44469655  0.66493640  0.46756761    -0.13800
C739        C  0.99603037  0.60504259  0.42086524     0.16000
C740        C  0.99782861  0.58410944  0.40222026     0.25400
C741        C  0.48688272  0.55463191  0.41209520    -0.40900
C742        C  0.47487586  0.54670224  0.44171784     0.32400
C743        C  0.47290318  0.56779622  0.46023968     0.14100
F744        F  0.00645752  0.63335986  0.41027103    -0.13300
F745        F  0.46391277  0.51830493  0.45225871    -0.13800
F746        F  0.01003633  0.59291436  0.37396849    -0.16100
F747        F  0.46036704  0.55952171  0.48838740    -0.14600
F748        F  0.44571091  0.62100981  0.43400974    -0.14600
F749        F  0.51466663  0.66227260  0.03854041    -0.16000
C750        C  0.47628137  0.80499734  0.50028920     0.14000
C751        C  0.48606333  0.80999073  0.46984933     0.01000
C752        C  0.49483783  0.79103496  0.45609135     0.16000
C753        C  0.49400342  0.76744379  0.47248392     0.25400
C754        C  0.48421818  0.76221862  0.50309889    -0.41000
C755        C  0.47554236  0.78174328  0.01685510     0.32400
C756        C  0.48661538  0.83438419  0.45171204     0.01100
F757        F  0.99703582  0.79134619  0.42449511    -0.13300
F758        F  0.46897762  0.77974599  0.04707734    -0.13800
C759        C  0.51364903  0.85653376  0.43879982     0.16000
C760        C  0.51368887  0.87642067  0.41715930     0.25400
C761        C  0.48647868  0.87431380  0.40778442    -0.40900
C762        C  0.45966629  0.85356027  0.42275519     0.32400
C763        C  0.45979844  0.83375043  0.44447460     0.14100
F764        F  0.53997186  0.85812704  0.44635431    -0.13300
F765        F  0.43307235  0.85163510  0.41580435    -0.13800
F766        F  0.54032704  0.89681388  0.40456760    -0.16100
F767        F  0.43343894  0.81276234  0.45708997    -0.14600
F768        F  0.46775497  0.82315064  0.51398793    -0.14600
F769        F  0.99759753  0.74684261  0.45645052    -0.16000
C770        C  0.47169867  0.61709907  0.17219681     0.14000
C771        C  0.48968916  0.62255951  0.19820773     0.01000
C772        C  0.51044626  0.65233043  0.20632546     0.16000
C773        C  0.51269933  0.67632833  0.18917339     0.25400
C774        C  0.49423461  0.67100237  0.16350074    -0.41000
C775        C  0.47407020  0.64109851  0.15485001     0.32400
C776        C  0.48623660  0.59745873  0.21770836     0.01100
F777        F  0.52853377  0.65810979  0.23099153    -0.13300
F778        F  0.45567241  0.63508747  0.13041057    -0.13800
C779        C  0.99454638  0.57829897  0.20851754     0.16000
C780        C  0.99409637  0.55629665  0.22785828     0.25400
C781        C  0.48386289  0.55281365  0.25723232    -0.40900
C782        C  0.47335272  0.57204478  0.26684409     0.32400
C783        C  0.47443719  0.59398807  0.24724688     0.14100
F784        F  0.00722539  0.58268686  0.18044601    -0.13300
F785        F  0.46196935  0.56969103  0.29533664    -0.13800
F786        F  0.00651140  0.54000776  0.21800910    -0.16100
F787        F  0.46408636  0.61207470  0.25719650    -0.14600
F788        F  0.45105105  0.58854931  0.16428394    -0.14600
F789        F  0.53324127  0.70480287  0.19744003    -0.16000
C790        C  0.00944944  0.79841691  0.21131256     0.14000
C791        C  0.49294887  0.81131496  0.20189737     0.01000
C792        C  0.48005115  0.80438248  0.17262746     0.16000
C793        C  0.48200858  0.78301875  0.15439498     0.25400
C794        C  0.49658940  0.76785053  0.16534781    -0.41000
C795        C  0.01075085  0.77670969  0.19321227     0.32400
C796        C  0.48983160  0.83275217  0.22208184     0.01100
F797        F  0.46541133  0.81820968  0.16177828    -0.13300
F798        F  0.02685361  0.76418252  0.20342093    -0.13800
C799        C  0.01472505  0.86111879  0.22894539     0.16000
C800        C  0.01271573  0.87997919  0.25064155     0.25400
C801        C  0.48579014  0.87095183  0.26622813    -0.40900
C802        C  0.46029727  0.84327515  0.25828481     0.32400
C803        C  0.46237793  0.82442013  0.23646385     0.14100
F804        F  0.04129299  0.87017387  0.21464077    -0.13300
F805        F  0.43359542  0.83374051  0.27246434    -0.13800
F806        F  0.03769891  0.90677924  0.25642276    -0.16100
F807        F  0.43784940  0.79735067  0.23032450    -0.14600
F808        F  0.02370483  0.80577996  0.23872644    -0.14600
F809        F  0.46864043  0.77645487  0.12652042    -0.16000
C810        C  0.36492498  0.00741995  0.43925520     0.14000
C811        C  0.34034094  0.98089175  0.45027127     0.01000
C812        C  0.33643676  0.95313784  0.44081962     0.16000
C813        C  0.35602644  0.95188049  0.41949230     0.25400
C814        C  0.37999097  0.97850567  0.40710013    -0.41000
C815        C  0.38463730  0.00634314  0.41808156     0.32400
C816        C  0.31750815  0.98231263  0.46958318     0.01100
F817        F  0.31271103  0.92717266  0.45109830    -0.13300
F818        F  0.40776486  0.03275450  0.40783288    -0.13800
C819        C  0.30081641  0.99462581  0.45759641     0.16000
C820        C  0.27882788  0.99576815  0.47516638     0.25400
C821        C  0.27288463  0.98448858  0.50531950    -0.40900
C822        C  0.29022530  0.47023847  0.01668142     0.32400
C823        C  0.31156155  0.46820083  0.50018491     0.14100
F824        F  0.30539625  0.00501714  0.42844037    -0.13300
F825        F  0.28394319  0.45764793  0.04491588    -0.13800
F826        F  0.26348832  0.00808893  0.46244158    -0.16100
F827        F  0.32687794  0.45558459  0.51230695    -0.14600
F828        F  0.36945314  0.03452447  0.44856016    -0.14600
F829        F  0.35075642  0.92449558  0.41032642    -0.16000
C830        C  0.10550754  0.97299578  0.42220336     0.15100
C831        C  0.10716173  0.98253083  0.45253785     0.01000
C832        C  0.08549863  0.98929604  0.46322818     0.16000
C833        C  0.06300327  0.98723245  0.44363338     0.25400
C834        C  0.06210732  0.97880115  0.41288286    -0.41000
C835        C  0.08351892  0.97145181  0.40253183     0.32400
C836        C  0.13184657  0.98564972  0.47250787     0.01100
F837        F  0.08667563  0.99882083  0.49236087    -0.13300
F838        F  0.08326143  0.96262134  0.37325455    -0.13800
C839        C  0.16348966  0.50273600  0.46144476     0.16000
C840        C  0.18614073  0.50217320  0.47844224     0.25400
C841        C  0.17945816  0.98715019  0.00563709    -0.40900
C842        C  0.15016603  0.97456803  0.01759505     0.32400
C843        C  0.12568723  0.97035966  0.50053044     0.14100
F844        F  0.17071571  0.51826626  0.43475299    -0.13300
F845        F  0.14331472  0.96135950  0.04553513    -0.13800
F846        F  0.21466723  0.51720492  0.46761939    -0.16100
F847        F  0.09696779  0.95322602  0.51036871    -0.14600
F848        F  0.12521687  0.96496379  0.41155697    -0.14600
F849        F  0.04279261  0.99445808  0.45452284    -0.16000
C850        C  0.31538494  0.98250047  0.17629140     0.14000
C851        C  0.30827056  0.96886474  0.20523621     0.01000
C852        C  0.27820160  0.95363713  0.21484009     0.16000
C853        C  0.25567371  0.95232843  0.19605942     0.25400
C854        C  0.26274647  0.96665326  0.16734335    -0.41000
C855        C  0.29285086  0.98137758  0.15746361     0.32400
C856        C  0.33202327  0.97060562  0.22571239     0.01100
F857        F  0.27069966  0.94070394  0.24290803    -0.13300
F858        F  0.30074665  0.99563865  0.13007939    -0.13800
C859        C  0.35600016  0.99851786  0.23496506     0.16000
C860        C  0.37720747  0.00006416  0.25598537     0.25400
C861        C  0.37472016  0.97361820  0.26847591    -0.40900
C862        C  0.35092338  0.94564209  0.25843525     0.32400
C863        C  0.32998657  0.94424367  0.23726195     0.14100
F864        F  0.36082466  0.52884621  0.22617730    -0.13300
F865        F  0.34732544  0.91939337  0.26942509    -0.13800
F866        F  0.40159783  0.53086178  0.26645339    -0.16100
F867        F  0.30744296  0.91695099  0.22815412    -0.14600
F868        F  0.34421434  0.99699015  0.16627753    -0.14600
F869        F  0.22687518  0.93696251  0.20612125    -0.16000
C870        C  0.07375049  0.96689390  0.20734566     0.14000
C871        C  0.10279483  0.97566228  0.21780938     0.01000
C872        C  0.11108421  0.98663372  0.24762712     0.16000
C873        C  0.09038403  0.98777045  0.26717889     0.25400
C874        C  0.06083984  0.97803450  0.25725130    -0.41000
C875        C  0.05288661  0.96814909  0.22690029     0.32400
C876        C  0.12435426  0.97240126  0.19832594     0.01100
F877        F  0.13933276  0.99611028  0.25790087    -0.13300
F878        F  0.02461291  0.95838216  0.21658685    -0.13800
C879        C  0.13578180  0.98955993  0.17165381     0.16000
C880        C  0.15785530  0.98791603  0.15457753     0.25400
C881        C  0.16893630  0.96918506  0.16409549    -0.40900
C882        C  0.15686520  0.95149857  0.19046383     0.32400
C883        C  0.13477019  0.95309960  0.20738717     0.14100
F884        F  0.12714211  0.51035006  0.16262900    -0.13300
F885        F  0.16632403  0.93249940  0.19981676    -0.13800
F886        F  0.17072463  0.50841186  0.12926491    -0.16100
F887        F  0.12363101  0.93594088  0.23285638    -0.14600
F888        F  0.06528719  0.95601919  0.17860256    -0.14600
F889        F  0.09936715  0.99835832  0.29595529    -0.16000
C890        C  0.39825390  0.88068052  0.46606116     0.14000
C891        C  0.36956414  0.85896592  0.45594863     0.01000
C892        C  0.36065233  0.86034123  0.42603135     0.16000
C893        C  0.38067254  0.88196317  0.40583290     0.25400
C894        C  0.41007183  0.90292633  0.41526729    -0.41000
C895        C  0.41843214  0.90261479  0.44584984     0.32400
C896        C  0.34920597  0.83363372  0.47559964     0.01100
F897        F  0.33252830  0.84031430  0.41623145    -0.13300
F898        F  0.44646319  0.92259012  0.45583952    -0.13800
C899        C  0.33757020  0.83842448  0.50259554     0.16000
C900        C  0.31584393  0.81290456  0.01840095     0.25400
C901        C  0.30461852  0.78311098  0.00864328    -0.40900
C902        C  0.31763792  0.77980116  0.48222961     0.32400
C903        C  0.33971783  0.80418382  0.46601537     0.14100
F904        F  0.34688404  0.86538956  0.00992353    -0.13300
F905        F  0.30851511  0.75157444  0.47217138    -0.13800
F906        F  0.30424623  0.81898334  0.04340310    -0.16100
F907        F  0.35147564  0.79912673  0.44049458    -0.14600
F908        F  0.40711756  0.87982448  0.49506663    -0.14600
F909        F  0.37120029  0.88215413  0.37691501    -0.16000
C910        C  0.14012530  0.59990973  0.43294445     0.14000
C911        C  0.13841779  0.62458960  0.44365821     0.01000
C912        C  0.11469659  0.62860156  0.43418926     0.16000
C913        C  0.09313414  0.60848742  0.41365925     0.25400
C914        C  0.09509383  0.58400560  0.40192133    -0.41000
C915        C  0.11868900  0.57970916  0.41240311     0.32400
C916        C  0.16233093  0.64711327  0.46341844     0.01100
F917        F  0.11277641  0.65242961  0.44445117    -0.13300
F918        F  0.12161100  0.55636378  0.40241529    -0.13800
C919        C  0.18576829  0.67321750  0.45046116     0.16000
C920        C  0.20853669  0.69482121  0.46882943     0.25400
C921        C  0.20838404  0.69071438  0.50082506    -0.40900
C922        C  0.18270516  0.66430210  0.01576238     0.32400
C923        C  0.16184592  0.64269431  0.49504367     0.14100
F924        F  0.18662507  0.67775827  0.41983066    -0.13300
F925        F  0.18078730  0.66024316  0.04648474    -0.13800
F926        F  0.23045804  0.71988806  0.45501857    -0.16100
F927        F  0.13920658  0.61746694  0.50786947    -0.14600
F928        F  0.16314187  0.59588654  0.44172623    -0.14600
F929        F  0.07078543  0.61351375  0.40488557    -0.16000
C930        C  0.39539285  0.87316113  0.21049097     0.14000
C931        C  0.36678243  0.85183464  0.22132385     0.01000
C932        C  0.35874625  0.85406304  0.25140634     0.16000
C933        C  0.37904059  0.87675117  0.27057278     0.25400
C934        C  0.40774999  0.89822234  0.25989089    -0.41000
C935        C  0.41568042  0.89632088  0.22956621     0.32400
C936        C  0.34485988  0.82741554  0.20145329     0.01100
F937        F  0.33092639  0.83442386  0.26219049    -0.13300
F938        F  0.44331755  0.91625834  0.21863254    -0.13800
C939        C  0.33104870  0.79742717  0.21138959     0.16000
C940        C  0.30781045  0.77467094  0.19444257     0.25400
C941        C  0.29860492  0.78138487  0.16677835    -0.40900
C942        C  0.31323038  0.81119231  0.15620669     0.32400
C943        C  0.33597274  0.83407763  0.17357524     0.14100
F944        F  0.33991769  0.79022508  0.23772083    -0.13300
F945        F  0.30442735  0.81842926  0.12986960    -0.13800
F946        F  0.29445064  0.74603090  0.20499985    -0.16100
F947        F  0.34829186  0.86291743  0.16388139    -0.14600
F948        F  0.40393260  0.87115077  0.18168079    -0.14600
F949        F  0.37033778  0.87772782  0.29962205    -0.16000
C950        C  0.13416552  0.59982317  0.23146503     0.14000
C951        C  0.12846052  0.62139935  0.21878077     0.01000
C952        C  0.10258805  0.62204047  0.22711720     0.16000
C953        C  0.08306683  0.60200154  0.24893500     0.25400
C954        C  0.08937629  0.58111460  0.26304826    -0.41000
C955        C  0.11483066  0.57978076  0.25338225     0.32400
C956        C  0.15144031  0.64549414  0.19985238     0.01100
F957        F  0.09683409  0.64283974  0.21486527    -0.13300
F958        F  0.12199959  0.56014820  0.26606608    -0.13800
C959        C  0.15521302  0.64050854  0.16916676     0.16000
C960        C  0.17865823  0.66306228  0.15211327     0.25400
C961        C  0.19895559  0.69080650  0.16581412    -0.40900
C962        C  0.19432978  0.69577386  0.19654278     0.32400
C963        C  0.17078766  0.67329216  0.21330090     0.14100
F964        F  0.13643971  0.61363743  0.15592316    -0.13300
F965        F  0.21255061  0.72234646  0.21061764    -0.13800
F966        F  0.18193540  0.65727957  0.12257055    -0.16100
F967        F  0.16731000  0.67833126  0.24306301    -0.14600
F968        F  0.15942051  0.59928981  0.22381668    -0.14600
F969        F  0.05853833  0.60379363  0.25677469    -0.16000
C970        C  0.22706950  0.71441851  0.64832781     0.81600
N971        N  0.22761243  0.71382726  0.61725854    -0.76700
C972        C  0.25178010  0.73517524  0.60177476     0.84000
N973        N  0.27534288  0.75719295  0.61735302    -0.76700
C974        C  0.27517625  0.75783655  0.64821967     0.84100
N975        N  0.25108272  0.73639386  0.66351554    -0.78400
C976        C  0.23282476  0.71396722  0.52025472     0.81600
N977        N  0.23077317  0.71319353  0.55132957    -0.76700
C978        C  0.25309043  0.73520662  0.56838482     0.84000
N979        N  0.27720798  0.75802873  0.55440778    -0.76700
C980        C  0.27953488  0.75895024  0.52367084     0.84100
N981        N  0.25740622  0.73690042  0.50680056    -0.78400
C982        C  0.23982868  0.97006932  0.65041484     0.81600
N983        N  0.24240757  0.97366697  0.61953855    -0.76700
C984        C  0.22098187  0.97564096  0.60323695     0.84000
N985        N  0.19714796  0.97428648  0.61792798    -0.76700
C986        C  0.19432106  0.97066956  0.64863578     0.84100
N987        N  0.21572909  0.96860379  0.66464931    -0.78400
C988        C  0.24822856  0.98431819  0.52325372     0.81600
N989        N  0.22634931  0.98679352  0.50851864    -0.76700
C990        C  0.20309030  0.98579063  0.52401495     0.84000
N991        N  0.20170844  0.98216118  0.55473724    -0.76700
C992        C  0.22336724  0.97974207  0.56994131     0.84100
N993        N  0.24658503  0.98075042  0.55415776    -0.78400
C994        C  0.49220622  0.74065680  0.64724375     0.81600
N995        N  0.48959555  0.73964230  0.61627732    -0.76700
C996        C  0.48804624  0.71624143  0.60032884     0.84000
N997        N  0.48870485  0.69360326  0.61545772    -0.76700
C998        C  0.49144177  0.69439245  0.64629212     0.84100
N999        N  0.49329557  0.71799972  0.66203753    -0.78400
C1000       C  0.48329518  0.73702187  0.52034661     0.81600
N1001       N  0.48545439  0.73793930  0.55131158    -0.76700
C1002       C  0.48553131  0.71520175  0.56689198     0.84000
N1003       N  0.48364664  0.69148424  0.55136075    -0.76700
C1004       C  0.48124312  0.69022774  0.52045877     0.84100
N1005       N  0.48105959  0.71300752  0.50516190    -0.78400
O1006       O  0.00866506  0.91081451  0.86964782    -0.86800
C1007       C  0.07175999  0.56400755  0.78921631     1.13200
O1008       O  0.48439713  0.94602741  0.83501908    -1.34600
O1009       O  0.07735664  0.54379074  0.86755266    -0.88300
O1010       O  0.45911056  0.88557545  0.86853644    -0.89000
O1011       O  0.45463198  0.94647678  0.89987308    -0.77800
O1012       O  0.04302884  0.97686604  0.86328134    -0.99900
C1013       C  0.48747316  0.53343796  0.89054017     1.23300
O1014       O  0.45360412  0.97750057  0.83569761    -1.34800
Mn1015     Mn  0.48423962  0.97728329  0.80206255     1.82100
O1016       O  0.48713751  0.51017251  0.89940956    -0.76900
O1017       O  0.05323642  0.56950977  0.86865644    -0.86300
C1018       C  0.48569197  0.53229714  0.77887520     1.14400
C1019       C  0.07343491  0.56431105  0.87857441     1.09100
O1020       O  0.45268065  0.94616770  0.77128607    -0.77800
O1021       O  0.01666519  0.50929792  0.83439572    -1.31500
O1022       O  0.42528486  0.91881249  0.80726464    -0.97000
C1023       C  0.39991092  0.97812270  0.88233622     1.07800
Mn1024     Mn  0.01981499  0.55190785  0.83454431     1.48600
O1025       O  0.39470880  0.95284183  0.87210804    -0.86200
Mn1026     Mn  0.44427288  0.90359610  0.83494865     1.49600
O1027       O  0.00788766  0.91008626  0.80085502    -0.90100
C1028       C  0.03927209  0.97735903  0.89067718     1.21000
C1029       C  0.48362023  0.89020572  0.78956253     1.13000
Mn1030     Mn  0.48513516  0.97757763  0.86833112     1.81000
O1031       O  0.48639948  0.53720371  0.80617095    -0.95200
Mn1032     Mn  0.02351917  0.94304818  0.83492275     1.49300
C1033       C  0.48394232  0.89060889  0.87967140     1.09600
Mn1034     Mn  0.45309530  0.51862354  0.83537575     1.49900
C1035       C  0.39685432  0.97725424  0.79322291     1.12500
O1036       O  0.42650641  0.91869141  0.86449031    -1.01000
O1037       O  0.05202102  0.56933981  0.79996939    -0.90700
C1038       C  0.43136373  0.92301599  0.89177520     1.23800
O1039       O  0.48729701  0.53723259  0.86319601    -1.01400
O1040       O  0.07602700  0.54342089  0.79949637    -0.88800
O1041       O  0.41936973  0.50344581  0.80195829    -0.88400
O1042       O  0.45848938  0.88557002  0.79978425    -0.88500
Mn1043     Mn  0.05864916  0.51115155  0.83378402     1.47900
O1044       O  0.48558092  0.50892935  0.77072656    -0.76900
C1045       C  0.42939959  0.92301385  0.77991140     1.16800
O1046       O  0.01633356  0.97770582  0.89944232    -0.75700
O1047       O  0.01413201  0.97667357  0.77079437    -0.75300
Mn1048     Mn  0.41121384  0.93762363  0.83684119     1.51100
O1049       O  0.42125411  0.50417907  0.87039785    -0.87600
O1050       O  0.04214528  0.97665220  0.80604012    -0.95200
O1051       O  0.39265770  0.95252517  0.80388190    -0.90200
C1052       C  0.03768038  0.97715042  0.77881246     1.14600
C1053       C  0.46279468  0.63185729  0.95973560     0.14000
C1054       C  0.48066029  0.61972638  0.96868113     0.01000
C1055       C  0.49759256  0.62982408  0.99563006     0.16000
C1056       C  0.49765916  0.65251752  0.51270061     0.25400
C1057       C  0.48010144  0.66496617  0.50336869    -0.41000
C1058       C  0.46229874  0.65424361  0.97727391     0.32400
C1059       C  0.48280817  0.59757955  0.94916554     0.01100
F1060       F  0.51639328  0.61937354  0.50394854    -0.13300
F1061       F  0.44471125  0.66546441  0.96807690    -0.13800
C1062       C  0.99571685  0.60583983  0.92052387     0.16000
C1063       C  0.99763623  0.58508893  0.90174215     0.25400
C1064       C  0.48731734  0.55568829  0.91164050    -0.40900
C1065       C  0.47552015  0.54761300  0.94131477     0.32400
C1066       C  0.47322415  0.56844881  0.95991458     0.14100
F1067       F  0.00599357  0.63418507  0.91008612    -0.13300
F1068       F  0.46510423  0.51930458  0.95186340    -0.13800
F1069       F  0.00979125  0.59405897  0.87348755    -0.16100
F1070       F  0.46086937  0.56000145  0.98811747    -0.14600
F1071       F  0.44595183  0.62208642  0.93390793    -0.14600
F1072       F  0.51550822  0.66315036  0.53776067    -0.16000
C1073       C  0.47511926  0.80444934  0.99960828     0.14000
C1074       C  0.48161835  0.80704569  0.96830436     0.01000
C1075       C  0.48809245  0.78658184  0.95423209     0.16000
C1076       C  0.48841914  0.76386563  0.97120430     0.25400
C1077       C  0.48221506  0.76111578  0.00285132    -0.41000
C1078       C  0.47543722  0.78135395  0.51686359     0.32400
C1079       C  0.48210413  0.83113496  0.94978612     0.01100
F1080       F  0.99765076  0.79084646  0.92495614    -0.13300
F1081       F  0.46544365  0.77688079  0.54613505    -0.13800
C1082       C  0.50957271  0.85483254  0.93946921     0.16000
C1083       C  0.51029335  0.87496883  0.91767160     0.25400
C1084       C  0.48336080  0.87150020  0.90547014    -0.40900
C1085       C  0.45576437  0.84864569  0.91750977     0.32400
C1086       C  0.45524330  0.82862686  0.93938683     0.14100
F1087       F  0.53577385  0.85777024  0.94977026    -0.13300
F1088       F  0.42912335  0.84486605  0.90753095    -0.13800
F1089       F  0.53745050  0.89717407  0.90791692    -0.16100
F1090       F  0.42845154  0.80581339  0.94925718    -0.14600
F1091       F  0.46861862  0.82405453  0.01345235    -0.14600
F1092       F  0.99864704  0.74699249  0.95768010    -0.16000
C1093       C  0.46956989  0.61573000  0.67202140     0.14000
C1094       C  0.48930017  0.62177844  0.69661337     0.01000
C1095       C  0.51068487  0.65166179  0.70357286     0.16000
C1096       C  0.51173689  0.67527476  0.68682054     0.25400
C1097       C  0.49150782  0.66937034  0.66270195    -0.41000
C1098       C  0.47077861  0.63936215  0.65502465     0.32400
C1099       C  0.48643765  0.59728454  0.71650276     0.01100
F1100       F  0.53038853  0.65791110  0.72685059    -0.13300
F1101       F  0.45075281  0.63296431  0.63203253    -0.13800
C1102       C  0.99465418  0.57820394  0.70716209     0.16000
C1103       C  0.99359156  0.55610265  0.72672388     0.25400
C1104       C  0.48470121  0.55356721  0.75669599    -0.40900
C1105       C  0.47530397  0.57364056  0.76643205     0.32400
C1106       C  0.47613543  0.59517633  0.74650899     0.14100
F1107       F  0.00537790  0.58070029  0.67836052    -0.13300
F1108       F  0.46518916  0.57247329  0.79531989    -0.13800
F1109       F  0.00349178  0.53779147  0.71636407    -0.16100
F1110       F  0.46699004  0.61420977  0.75657191    -0.14600
F1111       F  0.44835669  0.58702521  0.66532560    -0.14600
F1112       F  0.53274683  0.70393322  0.69394611    -0.16000
C1113       C  0.00601974  0.79749330  0.71040081     0.14000
C1114       C  0.49014282  0.80988015  0.70100579     0.01000
C1115       C  0.47596032  0.80188898  0.67236924     0.16000
C1116       C  0.47735567  0.78008220  0.65439440     0.25400
C1117       C  0.49265342  0.76553326  0.66498806    -0.41000
C1118       C  0.00749694  0.77570181  0.69265525     0.32400
C1119       C  0.48756627  0.83178863  0.72093287     0.01100
F1120       F  0.46063620  0.81514302  0.66188805    -0.13300
F1121       F  0.02398262  0.76366484  0.70305683    -0.13800
C1122       C  0.01080374  0.86076284  0.72547359     0.16000
C1123       C  0.00940586  0.87985215  0.74731447     0.25400
C1124       C  0.48427228  0.87094465  0.76432512    -0.40900
C1125       C  0.45851413  0.84337328  0.75666296     0.32400
C1126       C  0.46022851  0.82404230  0.73522965     0.14100
F1127       F  0.03649594  0.87020806  0.70932617    -0.13300
F1128       F  0.43188671  0.83437460  0.77078946    -0.13800
F1129       F  0.03403332  0.90728210  0.75153525    -0.16100
F1130       F  0.43544998  0.79705515  0.72944310    -0.14600
F1131       F  0.02055006  0.80550977  0.73765580    -0.14600
F1132       F  0.46276402  0.77246615  0.62716317    -0.16000
C1133       C  0.36745326  0.00777910  0.94165945     0.14000
C1134       C  0.34200493  0.98130904  0.95141155     0.01000
C1135       C  0.33713446  0.95355953  0.94071641     0.16000
C1136       C  0.35661643  0.95231484  0.91930340     0.25400
C1137       C  0.38135347  0.97897420  0.90799475    -0.41000
C1138       C  0.38701855  0.00671244  0.92031101     0.32400
C1139       C  0.31913538  0.98282069  0.97045637     0.01100
F1140       F  0.31252907  0.92768361  0.94976899    -0.13300
F1141       F  0.41098233  0.03305791  0.91116336    -0.13800
C1142       C  0.30330712  0.99610726  0.95858029     0.16000
C1143       C  0.28066421  0.99657109  0.97559165     0.25400
C1144       C  0.27329918  0.98371478  0.00504279    -0.40900
C1145       C  0.28880911  0.46863433  0.51732010     0.32400
C1146       C  0.31313087  0.46997784  0.99969491     0.14100
F1147       F  0.30931234  0.00803180  0.93002715    -0.13300
F1148       F  0.28243536  0.45584136  0.54546090    -0.13800
F1149       F  0.26611280  0.00979882  0.96306468    -0.16100
F1150       F  0.32867947  0.45769150  0.01200669    -0.14600
F1151       F  0.37291377  0.03482873  0.95226655    -0.14600
F1152       F  0.35040980  0.92498147  0.90886565    -0.16000
C1153       C  0.10435312  0.97105121  0.92176844     0.15100
C1154       C  0.10818823  0.98367915  0.95101773     0.01000
C1155       C  0.08827212  0.99309828  0.96096845     0.16000
C1156       C  0.06514245  0.99020296  0.94182790     0.25400
C1157       C  0.06192997  0.97836847  0.91219820    -0.41000
C1158       C  0.08176787  0.96873522  0.90247454     0.32400
C1159       C  0.13298988  0.98675583  0.97080471     0.01100
F1160       F  0.09175600  0.00593255  0.98886157    -0.13300
F1161       F  0.07925037  0.95678774  0.87423402    -0.13800
C1162       C  0.16176364  0.49826262  0.95848695     0.16000
C1163       C  0.18470991  0.49807369  0.97525868     0.25400
C1164       C  0.17881052  0.98718508  0.50728318    -0.40900
C1165       C  0.14897515  0.97135890  0.51792625     0.32400
C1166       C  0.12714492  0.97415274  0.00022312     0.14100
F1167       F  0.16829525  0.51192637  0.93075154    -0.13300
F1168       F  0.14203799  0.95551647  0.54439017    -0.13800
F1169       F  0.21262335  0.51130347  0.96292667    -0.16100
F1170       F  0.09881713  0.96010644  0.01161506    -0.14600
F1171       F  0.12239257  0.96062167  0.91188058    -0.14600
F1172       F  0.04664425  0.99999030  0.95189799    -0.16000
C1173       C  0.31627633  0.98485816  0.67733388     0.14000
C1174       C  0.30951634  0.97244561  0.70679724     0.01000
C1175       C  0.27972552  0.95821644  0.71710941     0.16000
C1176       C  0.25701155  0.95653624  0.69839214     0.25400
C1177       C  0.26366119  0.96946441  0.66896896    -0.41000
C1178       C  0.29356354  0.98331217  0.65849983     0.32400
C1179       C  0.33328495  0.97395648  0.72693184     0.01100
F1180       F  0.27270402  0.94646536  0.74570951    -0.13300
F1181       F  0.30110040  0.99617796  0.63042889    -0.13800
C1182       C  0.35731017  0.00172799  0.73636299     0.16000
C1183       C  0.37844901  0.00295070  0.75726651     0.25400
C1184       C  0.37588226  0.97629539  0.76924789    -0.40900
C1185       C  0.35205896  0.94846956  0.75890871     0.32400
C1186       C  0.33111219  0.94741532  0.73801665     0.14100
F1187       F  0.36137671  0.52837623  0.72501115    -0.13300
F1188       F  0.34842383  0.92203195  0.76935045    -0.13800
F1189       F  0.40319529  0.53099583  0.76424633    -0.16100
F1190       F  0.30837351  0.92029113  0.72876633    -0.14600
F1191       F  0.34490502  0.99842705  0.66678771    -0.14600
F1192       F  0.22846004  0.94208490  0.70919768    -0.16000
C1193       C  0.07352698  0.96803506  0.70702606     0.14000
C1194       C  0.10291108  0.97814507  0.71733194     0.01000
C1195       C  0.11128758  0.99028282  0.74673616     0.16000
C1196       C  0.09020204  0.99063077  0.76631134     0.25400
C1197       C  0.06028184  0.97921357  0.75668639    -0.41000
C1198       C  0.05235371  0.96878507  0.72650658     0.32400
C1199       C  0.12459618  0.97460662  0.69837505     0.01100
F1200       F  0.13992692  0.00141318  0.75667365    -0.13300
F1201       F  0.02376433  0.95764283  0.71647019    -0.13800
C1202       C  0.13498036  0.99011784  0.67067192     0.16000
C1203       C  0.15703952  0.98814395  0.65394729     0.25400
C1204       C  0.16916772  0.97072183  0.66483474    -0.40900
C1205       C  0.15803849  0.95455239  0.69223375     0.32400
C1206       C  0.13596341  0.95650011  0.70881542     0.14100
F1207       F  0.12517651  0.50762448  0.66226684    -0.13300
F1208       F  0.16836302  0.93668187  0.70294510    -0.13800
F1209       F  0.16945841  0.50606880  0.62987341    -0.16100
F1210       F  0.12572779  0.94080737  0.73527146    -0.14600
F1211       F  0.06500559  0.95612482  0.67865079    -0.14600
F1212       F  0.09913242  0.00195517  0.79486460    -0.16000
C1213       C  0.39837877  0.87818278  0.96464789     0.14000
C1214       C  0.36991378  0.85599416  0.95443162     0.01000
C1215       C  0.36124124  0.85696995  0.92428465     0.16000
C1216       C  0.38101679  0.87907279  0.90424912     0.25400
C1217       C  0.41000817  0.90091210  0.91398807    -0.41000
C1218       C  0.41833065  0.90051460  0.94458068     0.32400
C1219       C  0.34924504  0.83113039  0.97457478     0.01100
F1220       F  0.33344325  0.83635573  0.91419757    -0.13300
F1221       F  0.44605894  0.92103712  0.95483397    -0.13800
C1222       C  0.33786286  0.83678214  0.00130775     0.16000
C1223       C  0.31575498  0.81396504  0.51915876     0.25400
C1224       C  0.30501187  0.78450547  0.50853549    -0.40900
C1225       C  0.31691383  0.77752850  0.98257115     0.32400
C1226       C  0.33917744  0.80133319  0.96580781     0.14100
F1227       F  0.34614002  0.86672140  0.51197982    -0.13300
F1228       F  0.30727735  0.74897546  0.97325458    -0.13800
F1229       F  0.30389026  0.81914840  0.54451708    -0.16100
F1230       F  0.35058521  0.79534704  0.94059139    -0.14600
F1231       F  0.40718485  0.87760983  0.99374814    -0.14600
F1232       F  0.37162660  0.87897008  0.87522925    -0.16000
C1233       C  0.13952931  0.59961530  0.93375339     0.14000
C1234       C  0.13666895  0.62304943  0.94621659     0.01000
C1235       C  0.11189019  0.62594505  0.93834489     0.16000
C1236       C  0.09068448  0.60628020  0.91724794     0.25400
C1237       C  0.09404002  0.58337045  0.90345073    -0.41000
C1238       C  0.11836896  0.57977732  0.91280844     0.32400
C1239       C  0.16072298  0.64576772  0.96568949     0.01100
F1240       F  0.10873375  0.64843140  0.95048851    -0.13300
F1241       F  0.12235717  0.55759097  0.90122084    -0.13800
C1242       C  0.18506088  0.67072606  0.95215463     0.16000
C1243       C  0.20811402  0.69247617  0.97014002     0.25400
C1244       C  0.20737587  0.68965883  0.00233656    -0.40900
C1245       C  0.18459032  0.66427906  0.51366665     0.32400
C1246       C  0.15963008  0.64260609  0.99751710     0.14100
F1247       F  0.18643430  0.67408211  0.92132546    -0.13300
F1248       F  0.18326680  0.65904967  0.54416681    -0.13800
F1249       F  0.23092117  0.71640095  0.95572723    -0.16100
F1250       F  0.13618831  0.61841854  0.01088579    -0.14600
F1251       F  0.16338597  0.59648654  0.94125321    -0.14600
F1252       F  0.06725511  0.61015770  0.91003159    -0.16000
C1253       C  0.39640706  0.87557333  0.70866802     0.14000
C1254       C  0.36786467  0.85376514  0.71921796     0.01000
C1255       C  0.35935544  0.85575847  0.74917183     0.16000
C1256       C  0.37921177  0.87850007  0.76857891     0.25400
C1257       C  0.40796803  0.90026744  0.75829595    -0.41000
C1258       C  0.41625884  0.89878329  0.72799295     0.32400
C1259       C  0.34652905  0.82894481  0.69929768     0.01100
F1260       F  0.33153248  0.83572117  0.75964653    -0.13300
F1261       F  0.44388531  0.91911424  0.71735137    -0.13800
C1262       C  0.33328158  0.79906333  0.70948524     0.16000
C1263       C  0.31021093  0.77588718  0.69275461     0.25400
C1264       C  0.30061596  0.78205816  0.66504364    -0.40900
C1265       C  0.31492579  0.81172713  0.65404007     0.32400
C1266       C  0.33748438  0.83503436  0.67120338     0.14100
F1267       F  0.34246439  0.79238674  0.73592516    -0.13300
F1268       F  0.30593763  0.81843317  0.62750290    -0.13800
F1269       F  0.29733463  0.74737955  0.70360725    -0.16100
F1270       F  0.34938122  0.86370888  0.66112513    -0.14600
F1271       F  0.40537406  0.87392241  0.67994961    -0.14600
F1272       F  0.37010088  0.87913256  0.79753172    -0.16000
C1273       C  0.13843792  0.60437963  0.73624128     0.14000
C1274       C  0.13070085  0.62275131  0.71969677     0.01000
C1275       C  0.10287040  0.62066274  0.72452767     0.16000
C1276       C  0.08326800  0.60105404  0.74662480     0.25400
C1277       C  0.09124586  0.58307224  0.76407243    -0.41000
C1278       C  0.11888773  0.58457535  0.75813385     0.32400
C1279       C  0.15342747  0.64672646  0.70049186     0.01100
F1280       F  0.09526872  0.63853681  0.70871307    -0.13300
F1281       F  0.12790080  0.56816401  0.77458640    -0.13800
C1282       C  0.15536809  0.64233817  0.66921887     0.16000
C1283       C  0.17884190  0.66456122  0.65188070     0.25400
C1284       C  0.20083390  0.69145539  0.66580922    -0.40900
C1285       C  0.19789971  0.69590215  0.69717928     0.32400
C1286       C  0.17448033  0.67368018  0.71424773     0.14100
F1287       F  0.13496933  0.61623011  0.65571201    -0.13300
F1288       F  0.21767015  0.72168240  0.71165089    -0.13800
F1289       F  0.18039058  0.65924660  0.62176934    -0.16100
F1290       F  0.17261351  0.67819835  0.74453560    -0.14600
F1291       F  0.16562693  0.60667317  0.73211727    -0.14600
F1292       F  0.05688859  0.60030000  0.75137131    -0.16000
C1293       C  0.72560871  0.21483367  0.14770522     0.81600
N1294       N  0.72631048  0.21456064  0.11660388    -0.76700
C1295       C  0.75059309  0.23612519  0.10131180     0.84000
N1296       N  0.77411840  0.25798824  0.11714663    -0.76700
C1297       C  0.77374452  0.25827365  0.14804414     0.84100
N1298       N  0.74955256  0.23667800  0.16301715    -0.78400
C1299       C  0.73184553  0.21532830  0.01963775     0.81600
N1300       N  0.72964458  0.21466658  0.05069323    -0.76700
C1301       C  0.75218710  0.23627442  0.06785827     0.84000
N1302       N  0.77676985  0.25863497  0.05394956    -0.76700
C1303       C  0.77930792  0.25941615  0.02318897     0.84100
N1304       N  0.75688670  0.23773077  0.00622221    -0.78400
C1305       C  0.74021132  0.46900009  0.14992762     0.81600
N1306       N  0.74267546  0.47240801  0.11903964    -0.76700
C1307       C  0.72093725  0.47380823  0.10267575     0.84000
N1308       N  0.69688575  0.47206079  0.11732052    -0.76700
C1309       C  0.69419724  0.46854701  0.14805682     0.84100
N1310       N  0.71590436  0.46707213  0.16409665    -0.78400
C1311       C  0.74808897  0.48113271  0.02292222     0.81600
N1312       N  0.72633809  0.48350413  0.00780820    -0.76700
C1313       C  0.70310059  0.48291429  0.02296652     0.84000
N1314       N  0.70163092  0.47973577  0.05378047    -0.76700
C1315       C  0.72316919  0.47735658  0.06932060     0.84100
N1316       N  0.74635576  0.47803701  0.05383892    -0.78400
C1317       C  0.99599568  0.24232995  0.14737581     0.81600
N1318       N  0.99288692  0.24132888  0.11646509    -0.76700
C1319       C  0.99089575  0.21783230  0.10033256     0.84000
N1320       N  0.99166635  0.19511869  0.11525216    -0.76700
C1321       C  0.99486665  0.19588796  0.14605811     0.84100
N1322       N  0.99703444  0.21955243  0.16190307    -0.78400
C1323       C  0.98361376  0.23772821  0.02054272     0.81600
N1324       N  0.98697785  0.23918231  0.05143575    -0.76700
C1325       C  0.98730324  0.21650605  0.06697184     0.84000
N1326       N  0.98441608  0.19235561  0.05148575    -0.76700
C1327       C  0.98081163  0.19054724  0.02072548     0.84100
N1328       N  0.98039496  0.21323003  0.00548217    -0.78400
O1329       O  0.50818347  0.41099466  0.37238539    -0.86800
C1330       C  0.57003647  0.06314633  0.28834792     1.13200
O1331       O  0.98511078  0.44564915  0.33558138    -1.34600
O1332       O  0.57616010  0.04430814  0.36759977    -0.88300
O1333       O  0.96009081  0.38566681  0.36988043    -0.89000
O1334       O  0.95541073  0.44630990  0.40031426    -0.77800
O1335       O  0.54320221  0.47658424  0.36385888    -0.99900
C1336       C  0.98697885  0.03355210  0.39065210     1.23300
O1337       O  0.95407147  0.47688278  0.33597206    -1.34800
Mn1338     Mn  0.98471055  0.47665658  0.30228751     1.82100
O1339       O  0.98622222  0.01009756  0.39956817    -0.76900
O1340       O  0.55131357  0.06934011  0.36713918    -0.86300
C1341       C  0.98427399  0.03163692  0.27899235     1.14400
C1342       C  0.57164607  0.06474856  0.37779323     1.09100
O1343       O  0.95306097  0.44509736  0.27155098    -0.77800
O1344       O  0.51561945  0.00852821  0.33432861    -1.31500
O1345       O  0.92612097  0.41799946  0.30785335    -0.97000
C1346       C  0.90005529  0.47702052  0.38264059     1.07800
Mn1347     Mn  0.51780232  0.05068682  0.33341657     1.48600
O1348       O  0.89496843  0.45190234  0.37208600    -0.86200
Mn1349     Mn  0.94518704  0.40310959  0.33578650     1.49600
O1350       O  0.50821157  0.40830276  0.30369694    -0.90100
C1351       C  0.53967869  0.47754380  0.39118644     1.21000
C1352       C  0.98496140  0.38935794  0.29159903     1.13000
Mn1353     Mn  0.98575358  0.47726979  0.36864821     1.81000
O1354       O  0.98498198  0.03668582  0.30625117    -0.95200
Mn1355     Mn  0.52358129  0.44214010  0.33655287     1.49300
C1356       C  0.98481024  0.39146709  0.38195154     1.09600
Mn1357     Mn  0.95193674  0.01817017  0.33574920     1.49900
C1358       C  0.89695159  0.47609988  0.29355084     1.12500
O1359       O  0.92731981  0.41834289  0.36498228    -1.01000
O1360       O  0.54973469  0.06795898  0.29849047    -0.90700
C1361       C  0.93217514  0.42282382  0.39224492     1.23800
O1362       O  0.98643218  0.03715868  0.36329845    -1.01400
O1363       O  0.57495052  0.04324301  0.29942831    -0.88800
O1364       O  0.91798893  0.00285260  0.30258240    -0.88400
O1365       O  0.95961935  0.38488749  0.30095284    -0.88500
Mn1366     Mn  0.55804344  0.01124422  0.33407035     1.47900
O1367       O  0.98446676  0.00839341  0.27095499    -0.76900
C1368       C  0.92997968  0.42184477  0.28046683     1.16800
O1369       O  0.51664015  0.47774321  0.39979478    -0.75700
O1370       O  0.51497273  0.47549178  0.27099434    -0.75300
Mn1371     Mn  0.91180945  0.43683668  0.33709390     1.51100
O1372       O  0.92034984  0.00363798  0.37102486    -0.87600
O1373       O  0.54224328  0.47485460  0.30674682    -0.95200
O1374       O  0.89311146  0.45139859  0.30391246    -0.90200
C1375       C  0.53783075  0.47475261  0.27943094     1.14600
C1376       C  0.96954927  0.13641266  0.45926816     0.14000
C1377       C  0.98642065  0.12330192  0.46859007     0.01000
C1378       C  0.00337552  0.13314826  0.49555510     0.16000
C1379       C  0.99588676  0.15184634  0.01280153     0.25400
C1380       C  0.97868508  0.16477243  0.00372781    -0.41000
C1381       C  0.96981686  0.15929407  0.47656134     0.32400
C1382       C  0.98735825  0.10029938  0.44938822     0.01100
F1383       F  0.01351133  0.11784864  0.00385803    -0.13300
F1384       F  0.95283305  0.17113236  0.46718356    -0.13800
C1385       C  0.49629537  0.10606347  0.41909655     0.16000
C1386       C  0.49720723  0.08471581  0.40039461     0.25400
C1387       C  0.98828471  0.05651692  0.41174191    -0.40900
C1388       C  0.97650143  0.04905986  0.44148054     0.32400
C1389       C  0.97599231  0.07085348  0.46015848     0.14100
F1390       F  0.50720990  0.13442161  0.40839878    -0.13300
F1391       F  0.96435736  0.02050532  0.45198381    -0.13800
F1392       F  0.50893273  0.09309727  0.37190824    -0.16100
F1393       F  0.96355153  0.06305414  0.48838839    -0.14600
F1394       F  0.95274120  0.12695297  0.43340072    -0.14600
F1395       F  0.01436725  0.16256066  0.03740469    -0.16000
C1396       C  0.99278946  0.31471741  0.50301209     0.14000
C1397       C  0.98385417  0.31036055  0.47230459     0.01000
C1398       C  0.97636502  0.28317494  0.45796700     0.16000
C1399       C  0.97763705  0.26049853  0.47398804     0.25400
C1400       C  0.98648169  0.26448055  0.50495810    -0.41000
C1401       C  0.97740474  0.28325267  0.01721776     0.32400
C1402       C  0.98329141  0.33421940  0.45423684     0.01100
F1403       F  0.47019473  0.27925524  0.42551519    -0.13300
F1404       F  0.97001372  0.28060000  0.04725914    -0.13800
C1405       C  0.01016272  0.36041689  0.44689922     0.16000
C1406       C  0.01054731  0.37986508  0.42441103     0.25400
C1407       C  0.98397646  0.37326127  0.40870774    -0.40900
C1408       C  0.95660287  0.34828000  0.41832944     0.32400
C1409       C  0.95638611  0.32894793  0.44077401     0.14100
F1410       F  0.03637216  0.36617772  0.46011346    -0.13300
F1411       F  0.93004718  0.34163181  0.40528180    -0.13800
F1412       F  0.03716395  0.40456600  0.41744362    -0.16100
F1413       F  0.92999496  0.30420853  0.44843913    -0.14600
F1414       F  0.00017464  0.34095104  0.51722068    -0.14600
F1415       F  0.47134479  0.23462309  0.45609532    -0.16000
C1416       C  0.97339321  0.11679382  0.17023597     0.14000
C1417       C  0.99027882  0.12235359  0.19708738     0.01000
C1418       C  0.00993835  0.15211193  0.20607825     0.16000
C1419       C  0.01207163  0.17602587  0.18898010     0.25400
C1420       C  0.99452236  0.17060341  0.16254167    -0.41000
C1421       C  0.97556269  0.14072455  0.15298918     0.32400
C1422       C  0.98652091  0.09732230  0.21670597     0.01100
F1423       F  0.02695588  0.15795524  0.23162298    -0.13300
F1424       F  0.95802245  0.13459773  0.12781762    -0.13800
C1425       C  0.49096144  0.07408664  0.20572217     0.16000
C1426       C  0.49035476  0.05242712  0.22561467     0.25400
C1427       C  0.98349701  0.05288799  0.25668844    -0.40900
C1428       C  0.97235946  0.07174443  0.26564470     0.32400
C1429       C  0.97366273  0.09353865  0.24574694     0.14100
F1430       F  0.50216141  0.07675710  0.17712089    -0.13300
F1431       F  0.96020232  0.06918458  0.29377247    -0.13800
F1432       F  0.50101117  0.03460264  0.21571268    -0.16100
F1433       F  0.96258718  0.11124034  0.25493446    -0.14600
F1434       F  0.95389471  0.08817249  0.16145072    -0.14600
F1435       F  0.03149234  0.20452568  0.19818105    -0.16000
C1436       C  0.50456732  0.29209281  0.21486739     0.14000
C1437       C  0.99328030  0.31017212  0.20277733     0.01000
C1438       C  0.98028912  0.30359307  0.17353888     0.16000
C1439       C  0.98199797  0.28231861  0.15499014     0.25400
C1440       C  0.99657819  0.26703520  0.16551263    -0.41000
C1441       C  0.50605164  0.27072485  0.19640489     0.32400
C1442       C  0.99058787  0.33172822  0.22313200     0.01100
F1443       F  0.96589858  0.31777581  0.16297596    -0.13300
F1444       F  0.51900595  0.25551528  0.20800763    -0.13800
C1445       C  0.51478917  0.35647886  0.23341796     0.16000
C1446       C  0.51290265  0.37588250  0.25446689     0.25400
C1447       C  0.98641707  0.37024085  0.26668793    -0.40900
C1448       C  0.96037143  0.34434768  0.25608290     0.32400
C1449       C  0.96251080  0.32531759  0.23456887     0.14100
F1450       F  0.54204914  0.36329669  0.22218547    -0.13300
F1451       F  0.93286045  0.33677012  0.26715571    -0.13800
F1452       F  0.53870649  0.40109129  0.26252675    -0.16100
F1453       F  0.93723695  0.29988914  0.22584215    -0.14600
F1454       F  0.51534371  0.29634128  0.24385165    -0.14600
F1455       F  0.96842987  0.27597956  0.12722230    -0.16000
C1456       C  0.86679782  0.50535290  0.44253056     0.14000
C1457       C  0.84128819  0.47865588  0.45169279     0.01000
C1458       C  0.83664988  0.45115891  0.44052300     0.16000
C1459       C  0.85638032  0.45041398  0.41907948     0.25400
C1460       C  0.88120396  0.47734354  0.40830712    -0.41000
C1461       C  0.88667158  0.50478889  0.42121215     0.32400
C1462       C  0.81801128  0.47975763  0.47037095     0.01100
F1463       F  0.81205357  0.42507480  0.44915734    -0.13300
F1464       F  0.91072946  0.53132316  0.41265711    -0.13800
C1465       C  0.80107169  0.49144761  0.45763778     0.16000
C1466       C  0.77829447  0.49187655  0.47444524     0.25400
C1467       C  0.77201674  0.48070198  0.50462149    -0.40900
C1468       C  0.78921616  0.97061503  0.01727325     0.32400
C1469       C  0.81300031  0.97283041  0.50017333     0.14100
F1470       F  0.80623669  0.50193576  0.42850950    -0.13300
F1471       F  0.78259089  0.95755880  0.04528689    -0.13800
F1472       F  0.76256461  0.50342406  0.46099498    -0.16100
F1473       F  0.82901366  0.96141047  0.51325658    -0.14600
F1474       F  0.87197744  0.53213728  0.45365148    -0.14600
F1475       F  0.85030465  0.42330893  0.40806364    -0.16000
C1476       C  0.60527228  0.47195257  0.42192238     0.15100
C1477       C  0.60795209  0.48288217  0.45177137     0.01000
C1478       C  0.58741929  0.49128313  0.46219161     0.16000
C1479       C  0.56472482  0.48909424  0.44281560     0.25400
C1480       C  0.56239302  0.47861749  0.41267721    -0.41000
C1481       C  0.58294077  0.47001165  0.40253054     0.32400
C1482       C  0.63224224  0.48518630  0.47168404     0.01100
F1483       F  0.58983031  0.50230461  0.49085150    -0.13300
F1484       F  0.58124534  0.45921220  0.37385722    -0.13800
C1485       C  0.66491202  0.00926167  0.46198025     0.16000
C1486       C  0.68827408  0.00998849  0.47897610     0.25400
C1487       C  0.67931623  0.48498665  0.00582891    -0.40900
C1488       C  0.64992452  0.47220308  0.01754327     0.32400
C1489       C  0.62546353  0.46889732  0.49909044     0.14100
F1490       F  0.67148297  0.02524831  0.43561896    -0.13300
F1491       F  0.64285947  0.45855707  0.04526424    -0.13800
F1492       F  0.71683520  0.02660067  0.46851729    -0.16100
F1493       F  0.59656815  0.45211098  0.50855391    -0.14600
F1494       F  0.62415975  0.46272239  0.41160692    -0.14600
F1495       F  0.54569739  0.49807777  0.45324275    -0.16000
C1496       C  0.81666575  0.48427948  0.17753699     0.14000
C1497       C  0.80958377  0.47107439  0.20668166     0.01000
C1498       C  0.77960593  0.45629321  0.21648549     0.16000
C1499       C  0.75707264  0.45480097  0.19762499     0.25400
C1500       C  0.76403720  0.46848144  0.16856561    -0.41000
C1501       C  0.79411001  0.48297991  0.15859055     0.32400
C1502       C  0.83322622  0.47257263  0.22710597     0.01100
F1503       F  0.77218627  0.44384275  0.24477174    -0.13300
F1504       F  0.80193192  0.49674058  0.13095094    -0.13800
C1505       C  0.85726413  0.50035660  0.23652070     0.16000
C1506       C  0.87837696  0.50163641  0.25750883     0.25400
C1507       C  0.87579203  0.47504083  0.26967974    -0.40900
C1508       C  0.85179237  0.44718955  0.25961096     0.32400
C1509       C  0.83091789  0.44606402  0.23854376     0.14100
F1510       F  0.86119875  0.02870462  0.22519880    -0.13300
F1511       F  0.84788470  0.42079324  0.27051939    -0.13800
F1512       F  0.90229814  0.03081260  0.26502044    -0.16100
F1513       F  0.80813707  0.41889120  0.22946073    -0.14600
F1514       F  0.84545348  0.49840056  0.16741007    -0.14600
F1515       F  0.72835715  0.43979600  0.20795105    -0.16000
C1516       C  0.57268168  0.46363412  0.20782839     0.14000
C1517       C  0.60164816  0.47213877  0.21835097     0.01000
C1518       C  0.60988814  0.48287695  0.24825289     0.16000
C1519       C  0.58926657  0.48420258  0.26774876     0.25400
C1520       C  0.55985326  0.47490711  0.25768558    -0.41000
C1521       C  0.55189757  0.46506948  0.22733882     0.32400
C1522       C  0.62333587  0.46928744  0.19867968     0.01100
F1523       F  0.63807570  0.49215361  0.25860102    -0.13300
F1524       F  0.52377347  0.45582141  0.21688837    -0.13800
C1525       C  0.63414251  0.48628548  0.17181788     0.16000
C1526       C  0.65653364  0.48531610  0.15466585     0.25400
C1527       C  0.66858340  0.46747875  0.16432540    -0.40900
C1528       C  0.65705790  0.44983359  0.19080346     0.32400
C1529       C  0.63462467  0.45072541  0.20778601     0.14100
F1530       F  0.62463446  0.00810466  0.16147520    -0.13300
F1531       F  0.66744948  0.43162553  0.20026004    -0.13800
F1532       F  0.66815028  0.00581982  0.12850018    -0.16100
F1533       F  0.62408606  0.43367774  0.23340155    -0.14600
F1534       F  0.56427075  0.45303280  0.17899283    -0.14600
F1535       F  0.59827392  0.49476028  0.29653278    -0.16000
C1536       C  0.90005689  0.37643286  0.46424968     0.14000
C1537       C  0.87112906  0.35510150  0.45425878     0.01000
C1538       C  0.86189619  0.35735705  0.42473642     0.16000
C1539       C  0.88156014  0.37979449  0.40498184     0.25400
C1540       C  0.91096443  0.40071021  0.41441590    -0.41000
C1541       C  0.91987532  0.39917131  0.44447119     0.32400
C1542       C  0.85014688  0.33024623  0.47416453     0.01100
F1543       F  0.83360060  0.33776602  0.41504218    -0.13300
F1544       F  0.94800007  0.41895327  0.45438883    -0.13800
C1545       C  0.83985662  0.33616150  0.50148088     0.16000
C1546       C  0.81623871  0.31420435  0.01820596     0.25400
C1547       C  0.80532692  0.28456243  0.00812538    -0.40900
C1548       C  0.81482715  0.27697849  0.48052547     0.32400
C1549       C  0.83809480  0.30042484  0.46429731     0.14100
F1550       F  0.84694411  0.36678900  0.01034579    -0.13300
F1551       F  0.80324614  0.24843855  0.47014161    -0.13800
F1552       F  0.80405775  0.31989227  0.04298084    -0.16100
F1553       F  0.84843177  0.29414516  0.43844959    -0.14600
F1554       F  0.90935842  0.37470146  0.49280528    -0.14600
F1555       F  0.87163589  0.38102557  0.37656478    -0.16000
C1556       C  0.63333367  0.09851843  0.43794505     0.14000
C1557       C  0.63363027  0.12514866  0.44524798     0.01000
C1558       C  0.61199753  0.13073256  0.43231242     0.16000
C1559       C  0.59106828  0.11059890  0.41137765     0.25400
C1560       C  0.59159147  0.08450490  0.40262322    -0.41000
C1561       C  0.61254936  0.07834831  0.41691669     0.32400
C1562       C  0.65763692  0.14802712  0.46481326     0.01100
F1563       F  0.61149907  0.15607704  0.43962030    -0.13300
F1564       F  0.61354928  0.05315657  0.41017869    -0.13800
C1565       C  0.67807738  0.17617373  0.45253478     0.16000
C1566       C  0.70106908  0.19794034  0.47056997     0.25400
C1567       C  0.70423382  0.19194965  0.50140540    -0.40900
C1568       C  0.68362082  0.16574243  0.01309422     0.32400
C1569       C  0.66052384  0.14187314  0.49546422     0.14100
F1570       F  0.67607092  0.18240606  0.42276754    -0.13300
F1571       F  0.68302189  0.15999275  0.04341482    -0.13800
F1572       F  0.71994471  0.22503161  0.45776952    -0.16100
F1573       F  0.64092031  0.11478212  0.50777920    -0.14600
F1574       F  0.65408281  0.09266808  0.45017436    -0.14600
F1575       F  0.57097049  0.11730876  0.39908149    -0.16000
C1576       C  0.89604452  0.37270299  0.21035812     0.14000
C1577       C  0.86709236  0.35200068  0.22094172     0.01000
C1578       C  0.85889065  0.35487994  0.25075997     0.16000
C1579       C  0.87924635  0.37776110  0.26978750     0.25400
C1580       C  0.90825263  0.39871078  0.25928426    -0.41000
C1581       C  0.91642101  0.39600396  0.22930066     0.32400
C1582       C  0.84503274  0.32767880  0.20095982     0.01100
F1583       F  0.83086681  0.33572539  0.26140329    -0.13300
F1584       F  0.94438572  0.41523518  0.21863146    -0.13800
C1585       C  0.83061565  0.29766481  0.21089332     0.16000
C1586       C  0.80769080  0.27506845  0.19346973     0.25400
C1587       C  0.79917093  0.28195547  0.16545510    -0.40900
C1588       C  0.81434106  0.31179617  0.15495912     0.32400
C1589       C  0.83688183  0.33450829  0.17272123     0.14100
F1590       F  0.83861591  0.29024503  0.23763748    -0.13300
F1591       F  0.80628508  0.31926604  0.12829075    -0.13800
F1592       F  0.79393292  0.24637987  0.20394078    -0.16100
F1593       F  0.84974756  0.36338965  0.16301980    -0.14600
F1594       F  0.90481604  0.36990460  0.18191886    -0.14600
F1595       F  0.87032653  0.37945607  0.29853960    -0.16000
C1596       C  0.63726981  0.10421641  0.23610489     0.14000
C1597       C  0.62937696  0.12220727  0.21904995     0.01000
C1598       C  0.60112536  0.11940352  0.22313340     0.16000
C1599       C  0.58135036  0.09961891  0.24507734     0.25400
C1600       C  0.58954273  0.08212386  0.26309225    -0.41000
C1601       C  0.61751959  0.08416628  0.25773090     0.32400
C1602       C  0.65224535  0.14642555  0.20002425     0.01100
F1603       F  0.59330531  0.13686822  0.20687022    -0.13300
F1604       F  0.62663049  0.06799631  0.27446518    -0.13800
C1605       C  0.65261135  0.14353071  0.16823675     0.16000
C1606       C  0.67602353  0.16593587  0.15089436     0.25400
C1607       C  0.69947603  0.19159965  0.16528004    -0.40900
C1608       C  0.69812966  0.19455451  0.19728400     0.32400
C1609       C  0.67485161  0.17215150  0.21432223     0.14100
F1610       F  0.63074981  0.11862204  0.15416098    -0.13300
F1611       F  0.71937861  0.21900149  0.21251200    -0.13800
F1612       F  0.67594844  0.16202916  0.12023676    -0.16100
F1613       F  0.67454858  0.17537274  0.24509003    -0.14600
F1614       F  0.66475801  0.10704081  0.23266078    -0.14600
F1615       F  0.55457167  0.09821170  0.24911313    -0.16000
C1616       C  0.72559504  0.21618310  0.64827547     0.81600
N1617       N  0.72570891  0.21542345  0.61718036    -0.76700
C1618       C  0.74931176  0.23723492  0.60131285     0.84000
N1619       N  0.77277014  0.25982978  0.61655557    -0.76700
C1620       C  0.77293421  0.26062741  0.64744057     0.84100
N1621       N  0.74940135  0.23880880  0.66296777    -0.78400
C1622       C  0.72927303  0.21500550  0.52018476     0.81600
N1623       N  0.72746004  0.21491491  0.55124089    -0.76700
C1624       C  0.75040103  0.23667356  0.56788087     0.84000
N1625       N  0.77500147  0.25844937  0.55345700    -0.76700
C1626       C  0.77715830  0.25861497  0.52267943     0.84100
N1627       N  0.75428132  0.23686584  0.50620298    -0.78400
C1628       C  0.73990142  0.46888443  0.64924503     0.81600
N1629       N  0.74213849  0.47188764  0.61831749    -0.76700
C1630       C  0.72009260  0.47267746  0.60194803     0.84000
N1631       N  0.69597801  0.47073324  0.61659567    -0.76700
C1632       C  0.69349218  0.46763715  0.64735758     0.84100
N1633       N  0.71551071  0.46676794  0.66345079    -0.78400
C1634       C  0.74709060  0.48039684  0.52210552     0.81600
N1635       N  0.72532560  0.48291840  0.50715748    -0.76700
C1636       C  0.70207274  0.48208744  0.52254560     0.84000
N1637       N  0.70060288  0.47860895  0.55329303    -0.76700
C1638       C  0.72220626  0.47622738  0.56863458     0.84100
N1639       N  0.74539234  0.47709262  0.55300544    -0.78400
C1640       C  0.99361369  0.24124006  0.64857035     0.81600
N1641       N  0.99253984  0.24104906  0.61754017    -0.76700
C1642       C  0.99159210  0.21799207  0.60146411     0.84000
N1643       N  0.99138034  0.19486175  0.61651855    -0.76700
C1644       C  0.99259401  0.19485768  0.64746844     0.84100
N1645       N  0.99375509  0.21808510  0.66328067    -0.78400
C1646       C  0.98788022  0.24016561  0.52181872     0.81600
N1647       N  0.98945719  0.24038794  0.55280609    -0.76700
C1648       C  0.99038949  0.21789125  0.56797965     0.84000
N1649       N  0.98978951  0.19495913  0.55204131    -0.76700
C1650       C  0.98810200  0.19444549  0.52109694     0.84100
N1651       N  0.98717638  0.21704085  0.50626243    -0.78400
O1652       O  0.51082880  0.41286288  0.87037535    -0.86800
C1653       C  0.57116655  0.06354918  0.78970052     1.13200
O1654       O  0.98486527  0.44681432  0.83493002    -1.34600
O1655       O  0.57673158  0.04318483  0.86799289    -0.88300
O1656       O  0.95987449  0.38662598  0.86953736    -0.89000
O1657       O  0.95532261  0.44786703  0.89972260    -0.77800
O1658       O  0.54486851  0.47833621  0.86310728    -0.99900
C1659       C  0.98522459  0.03179027  0.89150400     1.23300
O1660       O  0.95425982  0.47844649  0.83546965    -1.34800
Mn1661     Mn  0.98467073  0.47793675  0.80181056     1.82100
O1662       O  0.98504776  0.00856359  0.90028474    -0.76900
O1663       O  0.55263760  0.06900637  0.86850986    -0.86300
C1664       C  0.98370366  0.03131493  0.77986443     1.14400
C1665       C  0.57301409  0.06405869  0.87839908     1.09100
O1666       O  0.95284377  0.44663333  0.77121761    -0.77800
O1667       O  0.51601923  0.00855749  0.83477457    -1.31500
O1668       O  0.92572544  0.41934867  0.80739014    -0.97000
C1669       C  0.90070044  0.47927469  0.88211109     1.07800
Mn1670     Mn  0.51896420  0.05108673  0.83470326     1.48600
O1671       O  0.89546260  0.45406730  0.87167546    -0.86200
Mn1672     Mn  0.94479885  0.40431009  0.83536536     1.49600
O1673       O  0.51005157  0.41110395  0.80181350    -0.90100
C1674       C  0.54113158  0.47890580  0.89048115     1.21000
C1675       C  0.98422839  0.39095134  0.79006841     1.13000
Mn1676     Mn  0.98581921  0.47852070  0.86804466     1.81000
O1677       O  0.98433466  0.03602614  0.80717537    -0.95200
Mn1678     Mn  0.52552488  0.44434667  0.83522673     1.49300
C1679       C  0.98505774  0.39215005  0.88029456     1.09600
Mn1680     Mn  0.95104655  0.01725708  0.83623891     1.49900
C1681       C  0.89774179  0.47830508  0.79270525     1.12500
O1682       O  0.92705925  0.41980076  0.86458435    -1.01000
O1683       O  0.55110438  0.06858920  0.80008347    -0.90700
C1684       C  0.93191352  0.42449070  0.89183149     1.23800
O1685       O  0.98514396  0.03563363  0.86416294    -1.01400
O1686       O  0.57553698  0.04305055  0.80011689    -0.88800
O1687       O  0.91747603  0.00232308  0.80276351    -0.88400
O1688       O  0.95893825  0.38591806  0.80028081    -0.88500
Mn1689     Mn  0.55807305  0.01047927  0.83424042     1.47900
O1690       O  0.98362364  0.00803403  0.77152149    -0.76900
C1691       C  0.92964717  0.42344528  0.78000413     1.16800
O1692       O  0.51821200  0.47929405  0.89918553    -0.75700
O1693       O  0.51583235  0.47704436  0.77046778    -0.75300
Mn1694     Mn  0.91184597  0.43859608  0.83664441     1.51100
O1695       O  0.91916761  0.00261689  0.87103995    -0.87600
O1696       O  0.54396195  0.47732800  0.80580778    -0.95200
O1697       O  0.89351572  0.45355834  0.80340136    -0.90200
C1698       C  0.53913454  0.47705556  0.77856327     1.14600
C1699       C  0.95989501  0.13044595  0.96049374     0.14000
C1700       C  0.97763748  0.11809176  0.96927148     0.01000
C1701       C  0.99544351  0.12879338  0.99561575     0.16000
C1702       C  0.00363488  0.15602027  0.51296162     0.25400
C1703       C  0.98701543  0.16945944  0.50350514    -0.41000
C1704       C  0.96045189  0.15366479  0.97754243     0.32400
C1705       C  0.97940428  0.09566230  0.94978493     0.01100
F1706       F  0.02051965  0.12131887  0.50438930    -0.13300
F1707       F  0.94303037  0.16514150  0.96855210    -0.13800
C1708       C  0.49495003  0.10531805  0.91996389     0.16000
C1709       C  0.49676156  0.08428374  0.90153697     0.25400
C1710       C  0.98466441  0.05392255  0.91257540    -0.40900
C1711       C  0.97308297  0.04596632  0.94235829     0.32400
C1712       C  0.97044030  0.06673500  0.96081387     0.14100
F1713       F  0.50571377  0.13365139  0.90925900    -0.13300
F1714       F  0.96330732  0.01786605  0.95319306    -0.13800
F1715       F  0.50923037  0.09302802  0.87337932    -0.16100
F1716       F  0.95848556  0.05845178  0.98919279    -0.14600
F1717       F  0.94222237  0.12014167  0.93525979    -0.14600
F1718       F  0.02110994  0.16584089  0.53833932    -0.16000
C1719       C  0.97772612  0.30651857  0.00029434     0.14000
C1720       C  0.98501969  0.30979664  0.96912652     0.01000
C1721       C  0.99178211  0.28948116  0.95502943     0.16000
C1722       C  0.99151836  0.26633176  0.97174494     0.25400
C1723       C  0.98419184  0.26275344  0.00308875    -0.41000
C1724       C  0.99403846  0.29196719  0.51929802     0.32400
C1725       C  0.98583633  0.33424358  0.95072713     0.01100
F1726       F  0.50216282  0.29605415  0.92689796    -0.13300
F1727       F  0.00317377  0.29718394  0.54887104    -0.13800
C1728       C  0.01254537  0.35487387  0.93608523     0.16000
C1729       C  0.01257688  0.37455124  0.91419236     0.25400
C1730       C  0.98567313  0.37385437  0.90627132    -0.40900
C1731       C  0.95932225  0.35462414  0.92277876     0.32400
C1732       C  0.95946835  0.33501866  0.94483829     0.14100
F1733       F  0.03850651  0.35512510  0.94219820    -0.13300
F1734       F  0.93317648  0.35412626  0.91713292    -0.13800
F1735       F  0.03882454  0.39324880  0.89985713    -0.16100
F1736       F  0.93347984  0.31565031  0.95921909    -0.14600
F1737       F  0.97129767  0.32606755  0.01439110    -0.14600
F1738       F  0.50265550  0.25140299  0.95839636    -0.16000
C1739       C  0.96982163  0.11584085  0.67268514     0.14000
C1740       C  0.98816858  0.12156500  0.69843924     0.01000
C1741       C  0.00888986  0.15134620  0.70645179     0.16000
C1742       C  0.01073679  0.17516233  0.68944735     0.25400
C1743       C  0.99196650  0.16958355  0.66402962    -0.41000
C1744       C  0.97181230  0.13969810  0.65545640     0.32400
C1745       C  0.98487371  0.09676259  0.71806629     0.01100
F1746       F  0.02723284  0.15729689  0.73093478    -0.13300
F1747       F  0.95305847  0.13362052  0.63131974    -0.13800
C1748       C  0.49181088  0.07611404  0.70696467     0.16000
C1749       C  0.49153877  0.05451042  0.72671668     0.25400
C1750       C  0.98284338  0.05272940  0.75788367    -0.40900
C1751       C  0.97283262  0.07231504  0.76758287     0.32400
C1752       C  0.97378442  0.09401036  0.74782324     0.14100
F1753       F  0.50293737  0.07897347  0.67829889    -0.13300
F1754       F  0.96209354  0.07056168  0.79628862    -0.13800
F1755       F  0.50236304  0.03690257  0.71657442    -0.16100
F1756       F  0.96405901  0.11259884  0.75782067    -0.14600
F1757       F  0.94918985  0.08721048  0.66500323    -0.14600
F1758       F  0.03111085  0.20372141  0.69763621    -0.16000
C1759       C  0.50632649  0.29618580  0.71126754     0.14000
C1760       C  0.99058009  0.31012490  0.70213774     0.01000
C1761       C  0.98112742  0.30559304  0.67152124     0.16000
C1762       C  0.98262831  0.28369740  0.65380151     0.25400
C1763       C  0.99361443  0.26584871  0.66645123    -0.41000
C1764       C  0.50740485  0.27430414  0.69335941     0.32400
C1765       C  0.98893351  0.33296564  0.72144276     0.01100
F1766       F  0.97069075  0.32256848  0.65868693    -0.13300
F1767       F  0.52242818  0.26088880  0.70426902    -0.13800
C1768       C  0.51590309  0.35767210  0.73284706     0.16000
C1769       C  0.51447603  0.37663360  0.75475440     0.25400
C1770       C  0.98565465  0.37204647  0.76491914    -0.40900
C1771       C  0.95958054  0.35019474  0.74968790     0.32400
C1772       C  0.96126479  0.33088368  0.72814986     0.14100
F1773       F  0.54322162  0.36272063  0.72366154    -0.13300
F1774       F  0.93233744  0.34700152  0.75595944    -0.13800
F1775       F  0.54077562  0.39912140  0.76602707    -0.16100
F1776       F  0.93566275  0.30927200  0.71483764    -0.14600
F1777       F  0.51921487  0.30224874  0.73937306    -0.14600
F1778       F  0.97265283  0.27960293  0.62451452    -0.16000
C1779       C  0.86795855  0.50782582  0.94238245     0.14000
C1780       C  0.84311909  0.48101670  0.95252760     0.01000
C1781       C  0.83890536  0.45352873  0.94182641     0.16000
C1782       C  0.85826014  0.45282947  0.91989596     0.25400
C1783       C  0.88227126  0.47978321  0.90810247    -0.41000
C1784       C  0.88743181  0.50730629  0.92051404     0.32400
C1785       C  0.81979878  0.48185949  0.97141964     0.01100
F1786       F  0.81495884  0.42732957  0.95131539    -0.13300
F1787       F  0.91073497  0.53392181  0.91093565    -0.13800
C1788       C  0.80319474  0.49410800  0.95909789     0.16000
C1789       C  0.78016074  0.49403487  0.97584919     0.25400
C1790       C  0.77320569  0.48175099  0.00555778    -0.40900
C1791       C  0.79112910  0.97482288  0.51737775     0.32400
C1792       C  0.81153948  0.96963878  0.99993513     0.14100
F1793       F  0.80884477  0.50553999  0.93033711    -0.13300
F1794       F  0.78636533  0.96467035  0.54660973    -0.13800
F1795       F  0.76484089  0.50620356  0.96278727    -0.16100
F1796       F  0.82629147  0.95628860  0.01172529    -0.14600
F1797       F  0.87279938  0.53465037  0.95302685    -0.14600
F1798       F  0.85258759  0.42567191  0.90944939    -0.16000
C1799       C  0.60523977  0.47098796  0.92155211     0.15100
C1800       C  0.60870356  0.48279286  0.95115349     0.01000
C1801       C  0.58886448  0.49223226  0.96131747     0.16000
C1802       C  0.56621416  0.49022198  0.94201125     0.25400
C1803       C  0.56345150  0.47929598  0.91202755    -0.41000
C1804       C  0.58319734  0.46961920  0.90209936     0.32400
C1805       C  0.63321663  0.48524157  0.97096207     0.01100
F1806       F  0.59196848  0.50423428  0.98959561    -0.13300
F1807       F  0.58109844  0.45850028  0.87350864    -0.13800
C1808       C  0.66234855  0.99998522  0.95900371     0.16000
C1809       C  0.68535783  0.00030393  0.97614891     0.25400
C1810       C  0.67822075  0.48421935  0.50582579    -0.40900
C1811       C  0.64826469  0.46854361  0.51613886     0.32400
C1812       C  0.62706354  0.47208223  0.00013198     0.14100
F1813       F  0.66877907  0.01277501  0.93083879    -0.13300
F1814       F  0.64074448  0.45160189  0.54189063    -0.13800
F1815       F  0.71323253  0.01322141  0.96375489    -0.16100
F1816       F  0.59862203  0.45784824  0.01123042    -0.14600
F1817       F  0.62313480  0.46046612  0.91144762    -0.14600
F1818       F  0.54772552  0.49993168  0.95231380    -0.16000
C1819       C  0.81714129  0.48623289  0.67645779     0.14000
C1820       C  0.81052534  0.47333288  0.70574768     0.01000
C1821       C  0.78063070  0.45827935  0.71586503     0.16000
C1822       C  0.75770670  0.45599744  0.69709078     0.25400
C1823       C  0.76418126  0.46926065  0.66785318    -0.41000
C1824       C  0.79418723  0.48420756  0.65762687     0.32400
C1825       C  0.83443419  0.47494019  0.72585123     0.01100
F1826       F  0.77364117  0.44617745  0.74432090    -0.13300
F1827       F  0.80152828  0.49761126  0.62979326    -0.13800
C1828       C  0.85877178  0.50271262  0.73489202     0.16000
C1829       C  0.87988962  0.50395172  0.75589082     0.25400
C1830       C  0.87688526  0.47733373  0.76852817    -0.40900
C1831       C  0.85276650  0.44951801  0.75858939     0.32400
C1832       C  0.83200246  0.44842873  0.73743546     0.14100
F1833       F  0.85843730  0.02796571  0.72794974    -0.13300
F1834       F  0.84861064  0.42310501  0.76972663    -0.13800
F1835       F  0.89937706  0.03032534  0.76822136    -0.16100
F1836       F  0.80912805  0.42125947  0.72847212    -0.14600
F1837       F  0.84582084  0.50063609  0.66601356    -0.14600
F1838       F  0.72908145  0.44053442  0.70762264    -0.16000
C1839       C  0.57187330  0.46246826  0.70745244     0.14000
C1840       C  0.60155834  0.47291540  0.71690553     0.01000
C1841       C  0.61094536  0.48621964  0.74573320     0.16000
C1842       C  0.59074621  0.48812334  0.76536895     0.25400
C1843       C  0.56068327  0.47693022  0.75644675    -0.41000
C1844       C  0.55152328  0.46452197  0.72707893     0.32400
C1845       C  0.62282762  0.46929431  0.69739238     0.01100
F1846       F  0.63979356  0.49728141  0.75493273    -0.13300
F1847       F  0.52265555  0.45320770  0.71788697    -0.13800
C1848       C  0.63282700  0.48497793  0.66972617     0.16000
C1849       C  0.65517273  0.48369249  0.65283182     0.25400
C1850       C  0.66792167  0.46677924  0.66352131    -0.40900
C1851       C  0.65708898  0.45032072  0.69079343     0.32400
C1852       C  0.63474267  0.45159136  0.70755496     0.14100
F1853       F  0.62670576  0.01171394  0.66159055    -0.13300
F1854       F  0.66810921  0.43296758  0.70128103    -0.13800
F1855       F  0.67014007  0.00945597  0.62849546    -0.16100
F1856       F  0.62495994  0.43584909  0.73402977    -0.14600
F1857       F  0.56238476  0.44933521  0.67968617    -0.14600
F1858       F  0.60070269  0.50091183  0.79322476    -0.16000
C1859       C  0.89850899  0.38144975  0.96544714     0.14000
C1860       C  0.87072334  0.35815089  0.95496798     0.01000
C1861       C  0.86226433  0.35828340  0.92454685     0.16000
C1862       C  0.88184130  0.38030732  0.90438330     0.25400
C1863       C  0.91040480  0.40293895  0.91426718    -0.41000
C1864       C  0.91822006  0.40378960  0.94526140     0.32400
C1865       C  0.85043819  0.33308655  0.97509719     0.01100
F1866       F  0.83489643  0.33683804  0.91427508    -0.13300
F1867       F  0.94526531  0.42554268  0.95583986    -0.13800
C1868       C  0.83844849  0.33833969  0.00159316     0.16000
C1869       C  0.81683957  0.31265587  0.51800114     0.25400
C1870       C  0.80354028  0.28295985  0.50714426    -0.40900
C1871       C  0.81831794  0.27933786  0.98242021     0.32400
C1872       C  0.84095120  0.30340822  0.96625875     0.14100
F1873       F  0.85085420  0.36483148  0.51118742    -0.13300
F1874       F  0.80895540  0.25091685  0.97284176    -0.13800
F1875       F  0.80634683  0.31918621  0.54356911    -0.16100
F1876       F  0.85315888  0.29781603  0.94143224    -0.14600
F1877       F  0.90698401  0.38195418  0.99490513    -0.14600
F1878       F  0.87270997  0.37926934  0.87507218    -0.16000
C1879       C  0.64300566  0.10560136  0.92760046     0.14000
C1880       C  0.63731807  0.12585564  0.94333774     0.01000
C1881       C  0.60975472  0.12464991  0.93934485     0.16000
C1882       C  0.58836932  0.10397187  0.91902177     0.25400
C1883       C  0.59425806  0.08410162  0.90227353    -0.41000
C1884       C  0.62167170  0.08474060  0.90747050     0.32400
C1885       C  0.66073364  0.14894677  0.96306799     0.01100
F1886       F  0.60386502  0.14401169  0.95464733    -0.13300
F1887       F  0.62847286  0.06590332  0.89240231    -0.13800
C1888       C  0.68372836  0.17539623  0.95013111     0.16000
C1889       C  0.70660956  0.19699541  0.96844385     0.25400
C1890       C  0.70707388  0.19242137  0.00027519    -0.40900
C1891       C  0.68352746  0.16365653  0.51368122     0.32400
C1892       C  0.66067759  0.14428201  0.99459189     0.14100
F1893       F  0.68399580  0.18029552  0.91961806    -0.13300
F1894       F  0.68584608  0.15673173  0.54309447    -0.13800
F1895       F  0.72806973  0.22246551  0.95479600    -0.16100
F1896       F  0.63856914  0.11865263  0.00735445    -0.14600
F1897       F  0.66958467  0.10645715  0.93132970    -0.14600
F1898       F  0.56202841  0.10360300  0.91571688    -0.16000
C1899       C  0.89485606  0.37663332  0.70866155     0.14000
C1900       C  0.86606763  0.35555432  0.71928438     0.01000
C1901       C  0.85813013  0.35760401  0.74947563     0.16000
C1902       C  0.87872021  0.37977897  0.76895340     0.25400
C1903       C  0.90766656  0.40093478  0.75851499    -0.41000
C1904       C  0.91545274  0.39927513  0.72805743     0.32400
C1905       C  0.84415759  0.33112871  0.69931533     0.01100
F1906       F  0.83019822  0.33814813  0.76013858    -0.13300
F1907       F  0.94330278  0.41882165  0.71733659    -0.13800
C1908       C  0.83059980  0.30114717  0.70917904     0.16000
C1909       C  0.80772155  0.27825224  0.69206129     0.25400
C1910       C  0.79841936  0.28476867  0.66433266    -0.40900
C1911       C  0.81285607  0.31457187  0.65373267     0.32400
C1912       C  0.83535930  0.33762954  0.67126106     0.14100
F1913       F  0.83939080  0.29403973  0.73561473    -0.13300
F1914       F  0.80411872  0.32161494  0.62723509    -0.13800
F1915       F  0.79476109  0.24961697  0.70257378    -0.16100
F1916       F  0.84754940  0.36644146  0.66152644    -0.14600
F1917       F  0.90334215  0.37472824  0.67979817    -0.14600
F1918       F  0.87011237  0.38050453  0.79810573    -0.16000
C1919       C  0.63927416  0.10593921  0.73898499     0.14000
C1920       C  0.63113893  0.12343899  0.72136561     0.01000
C1921       C  0.60258784  0.12008483  0.72484169     0.16000
C1922       C  0.58270128  0.10015363  0.74660831     0.25400
C1923       C  0.59102986  0.08298273  0.76495391    -0.41000
C1924       C  0.61941722  0.08576557  0.76044481     0.32400
C1925       C  0.65389340  0.14753025  0.70211443     0.01100
F1926       F  0.59455928  0.13717323  0.70819252    -0.13300
F1927       F  0.62877239  0.07022997  0.77789553    -0.13800
C1928       C  0.65251177  0.14555261  0.67017499     0.16000
C1929       C  0.67553016  0.16789342  0.65241677     0.25400
C1930       C  0.70029028  0.19265064  0.66650976    -0.40900
C1931       C  0.70087774  0.19457060  0.69877787     0.32400
C1932       C  0.67795339  0.17227133  0.71620631     0.14100
F1933       F  0.62926144  0.12159677  0.65627116    -0.13300
F1934       F  0.72370673  0.21784473  0.71392279    -0.13800
F1935       F  0.67363945  0.16490515  0.62157191    -0.16100
F1936       F  0.67930802  0.17473329  0.74713394    -0.14600
F1937       F  0.66702149  0.10926147  0.73613378    -0.14600
F1938       F  0.55564151  0.09824290  0.75013254    -0.16000
C1939       C  0.72642345  0.71404372  0.14927160     0.81600
N1940       N  0.72745730  0.71330466  0.11823406    -0.76700
C1941       C  0.75167703  0.73481263  0.10291391     0.84000
N1942       N  0.77484413  0.75713862  0.11865257    -0.76700
C1943       C  0.77417335  0.75793974  0.14951813     0.84100
N1944       N  0.75002715  0.73633173  0.16463003    -0.78400
C1945       C  0.73347812  0.71236883  0.02159254     0.81600
N1946       N  0.73116890  0.71226987  0.05260465    -0.76700
C1947       C  0.75353002  0.73433159  0.06954475     0.84000
N1948       N  0.77804106  0.75660912  0.05546361    -0.76700
C1949       C  0.78068868  0.75684544  0.02473513     0.84100
N1950       N  0.75844487  0.73470709  0.00800671    -0.78400
C1951       C  0.74067764  0.97167171  0.14973178     0.81600
N1952       N  0.74312561  0.97506010  0.11883949    -0.76700
C1953       C  0.72147012  0.97660422  0.10248482     0.84000
N1954       N  0.69750451  0.97500358  0.11712567    -0.76700
C1955       C  0.69480229  0.97152150  0.14785325     0.84100
N1956       N  0.71643277  0.96989867  0.16392040    -0.78400
C1957       C  0.74859078  0.98398705  0.02277402     0.81600
N1958       N  0.72686746  0.98638634  0.00765032    -0.76700
C1959       C  0.70365684  0.98584610  0.02280516     0.84000
N1960       N  0.70221544  0.98267832  0.05362549    -0.76700
C1961       C  0.72373372  0.98025212  0.06915689     0.84100
N1962       N  0.74687343  0.98086536  0.05367461    -0.78400
C1963       C  0.99440174  0.74263750  0.14744181     0.81600
N1964       N  0.99134309  0.74116634  0.11651019    -0.76700
C1965       C  0.98876265  0.71713856  0.10090020     0.84000
N1966       N  0.98874814  0.69427680  0.11641747    -0.76700
C1967       C  0.99178544  0.69543428  0.14728764     0.84100
N1968       N  0.99471204  0.71972511  0.16257567    -0.78400
C1969       C  0.98144670  0.73605798  0.02065399     0.81600
N1970       N  0.98450350  0.73772112  0.05158852    -0.76700
C1971       C  0.98550131  0.71552400  0.06742777     0.84000
N1972       N  0.98361744  0.69166972  0.05215187    -0.76700
C1973       C  0.98039885  0.68975012  0.02131956     0.84100
N1974       N  0.97931941  0.71194807  0.00585255    -0.78400
O1975       O  0.51067682  0.91257732  0.37052649    -0.86800
C1976       C  0.57137435  0.56166588  0.28924997     1.13200
O1977       O  0.98489162  0.94666503  0.33576306    -1.34600
O1978       O  0.57753167  0.54255250  0.36737533    -0.88300
O1979       O  0.95974543  0.88690419  0.37065595    -0.89000
O1980       O  0.95507213  0.94798956  0.40025237    -0.77800
O1981       O  0.54398830  0.97831898  0.36335631    -0.99900
C1982       C  0.98668089  0.53201048  0.39122957     1.23300
O1983       O  0.95406002  0.97812570  0.33576867    -1.34800
Mn1984     Mn  0.98470041  0.97755781  0.30237215     1.82100
O1985       O  0.98614223  0.50859247  0.39991285    -0.76900
O1986       O  0.55311374  0.56796580  0.36881411    -0.86300
C1987       C  0.98391919  0.53097306  0.27947967     1.14400
C1988       C  0.57364021  0.56310278  0.37835278     1.09100
O1989       O  0.95316953  0.94598592  0.27173279    -0.77800
O1990       O  0.51635526  0.50779688  0.33497967    -1.31500
O1991       O  0.92591824  0.91900811  0.30795394    -0.97000
C1992       C  0.90010345  0.97884851  0.38212799     1.07800
Mn1993     Mn  0.51967703  0.55043096  0.33483046     1.48600
O1994       O  0.89466871  0.95360320  0.37156737    -0.86200
Mn1995     Mn  0.94483496  0.90419144  0.33626375     1.49600
O1996       O  0.50957318  0.91080809  0.30196545    -0.90100
C1997       C  0.54027356  0.97907197  0.39072542     1.21000
C1998       C  0.98445011  0.89031788  0.29150649     1.13000
Mn1999     Mn  0.98563061  0.97852255  0.36858109     1.81000
O2000       O  0.98468369  0.53561055  0.30684269    -0.95200
Mn2001     Mn  0.52484039  0.94416260  0.33544525     1.49300
C2002       C  0.98476042  0.89232586  0.38168715     1.09600
Mn2003     Mn  0.95167401  0.51679677  0.33631958     1.49900
C2004       C  0.89735199  0.97760309  0.29273235     1.12500
O2005       O  0.92684401  0.91974383  0.36512611    -1.01000
O2006       O  0.55195467  0.56731280  0.30033670    -0.90700
C2007       C  0.93163331  0.92464283  0.39235946     1.23800
O2008       O  0.98618975  0.53580098  0.36390145    -1.01400
O2009       O  0.57548735  0.54091044  0.29939083    -0.88800
O2010       O  0.91763470  0.50142047  0.30321388    -0.88400
O2011       O  0.95921159  0.88550977  0.30167189    -0.88500
Mn2012     Mn  0.55819919  0.50923276  0.33433612     1.47900
O2013       O  0.98436754  0.50791093  0.27103672    -0.76900
C2014       C  0.93001699  0.92279678  0.28057104     1.16800
O2015       O  0.51712735  0.97912194  0.39926646    -0.75700
O2016       O  0.51440535  0.97616175  0.27062895    -0.75300
Mn2017     Mn  0.91161732  0.93821631  0.33682314     1.51100
O2018       O  0.92006238  0.50194800  0.37157144    -0.87600
O2019       O  0.54282064  0.97725048  0.30606142    -0.95200
O2020       O  0.89328573  0.95282325  0.30316314    -0.90200
C2021       C  0.53810438  0.97701269  0.27879541     1.14600
C2022       C  0.96340682  0.63114176  0.46007573     0.14000
C2023       C  0.98139824  0.61925857  0.46941642     0.01000
C2024       C  0.99838602  0.62989481  0.49628723     0.16000
C2025       C  0.99669918  0.65186641  0.01391524     0.25400
C2026       C  0.97936431  0.66448593  0.00432518    -0.41000
C2027       C  0.96287965  0.65382481  0.47707725     0.32400
C2028       C  0.98370126  0.59695997  0.45021337     0.01100
F2029       F  0.01567337  0.61891637  0.00523049    -0.13300
F2030       F  0.94513036  0.66474215  0.46754919    -0.13800
C2031       C  0.49546985  0.60510058  0.42016184     0.16000
C2032       C  0.49748838  0.58419780  0.40168488     0.25400
C2033       C  0.98724192  0.55452308  0.41254737    -0.40900
C2034       C  0.97559918  0.54664812  0.44231455     0.32400
C2035       C  0.97378712  0.56775735  0.46099001     0.14100
F2036       F  0.50592748  0.63340776  0.40952185    -0.13300
F2037       F  0.96479114  0.51827152  0.45284849    -0.13800
F2038       F  0.50994621  0.59301233  0.37353026    -0.16100
F2039       F  0.96146745  0.55947118  0.48922409    -0.14600
F2040       F  0.94643254  0.62080172  0.43438338    -0.14600
F2041       F  0.01399630  0.66205856  0.03938294    -0.16000
C2042       C  0.97560201  0.80484257  0.50009265     0.14000
C2043       C  0.98312856  0.80843639  0.46903398     0.01000
C2044       C  0.99015298  0.78843195  0.45471045     0.16000
C2045       C  0.98996167  0.76519775  0.47122201     0.25400
C2046       C  0.98261154  0.76142882  0.50257830    -0.41000
C2047       C  0.97237738  0.77965317  0.01633089     0.32400
C2048       C  0.98395000  0.83302086  0.45109069     0.01100
F2049       F  0.50381036  0.79513247  0.42644882    -0.13300
F2050       F  0.96338971  0.77601553  0.04592099    -0.13800
C2051       C  0.01124215  0.85539195  0.43890175     0.16000
C2052       C  0.01177064  0.87583760  0.41767685     0.25400
C2053       C  0.98476261  0.87385540  0.40775890    -0.40900
C2054       C  0.95761713  0.85278384  0.42202691     0.32400
C2055       C  0.95729538  0.83254382  0.44350320     0.14100
F2056       F  0.03735577  0.85669126  0.44678035    -0.13300
F2057       F  0.93117214  0.85098816  0.41462243    -0.13800
F2058       F  0.03870598  0.89669818  0.40603490    -0.16100
F2059       F  0.93072613  0.81138403  0.45559722    -0.14600
F2060       F  0.96876991  0.82406975  0.51425853    -0.14600
F2061       F  0.50329915  0.75008642  0.45837050    -0.16000
C2062       C  0.96790089  0.61605639  0.17335359     0.14000
C2063       C  0.98595409  0.62156660  0.19933507     0.01000
C2064       C  0.00656590  0.65135514  0.20749669     0.16000
C2065       C  0.00887965  0.67531483  0.19022951     0.25400
C2066       C  0.99058788  0.66995701  0.16439788    -0.41000
C2067       C  0.97031514  0.64003155  0.15589134     0.32400
C2068       C  0.98310920  0.59649906  0.21850927     0.01100
F2069       F  0.02455927  0.65719647  0.23225000    -0.13300
F2070       F  0.95197171  0.63398587  0.13139594    -0.13800
C2071       C  0.49589311  0.57781894  0.20760210     0.16000
C2072       C  0.49464801  0.55559389  0.22715660     0.25400
C2073       C  0.98243400  0.55237020  0.25766211    -0.40900
C2074       C  0.97043119  0.57034602  0.26725724     0.32400
C2075       C  0.97056166  0.59194502  0.24779580     0.14100
F2076       F  0.50759609  0.58095094  0.17918309    -0.13300
F2077       F  0.95851742  0.56709651  0.29561625    -0.13800
F2078       F  0.50537854  0.53786185  0.21716482    -0.16100
F2079       F  0.95864238  0.60869969  0.25766993    -0.14600
F2080       F  0.94729009  0.58748494  0.16547322    -0.14600
F2081       F  0.02942099  0.70379510  0.19847789    -0.16000
C2082       C  0.50851734  0.79718420  0.21235475     0.14000
C2083       C  0.99286172  0.81178168  0.20174616     0.01000
C2084       C  0.97871446  0.80410705  0.17306973     0.16000
C2085       C  0.98025842  0.78260002  0.15469315     0.25400
C2086       C  0.99562848  0.76801421  0.16495412    -0.41000
C2087       C  0.51026203  0.77564501  0.19439083     0.32400
C2088       C  0.98976895  0.83300614  0.22230031     0.01100
F2089       F  0.96318257  0.81728626  0.16299767    -0.13300
F2090       F  0.52544139  0.76247308  0.20551268    -0.13800
C2091       C  0.51492106  0.86070487  0.22892467     0.16000
C2092       C  0.51300009  0.87961566  0.25062339     0.25400
C2093       C  0.98555027  0.87113660  0.26640702    -0.40900
C2094       C  0.96022784  0.84322011  0.25881486     0.32400
C2095       C  0.96239550  0.82439405  0.23702284     0.14100
F2096       F  0.54155620  0.86950289  0.21487747    -0.13300
F2097       F  0.93364774  0.83343207  0.27334128    -0.13800
F2098       F  0.53812184  0.90624851  0.25660149    -0.16100
F2099       F  0.93804722  0.79709291  0.23123318    -0.14600
F2100       F  0.52145192  0.80375362  0.24043962    -0.14600
F2101       F  0.96563253  0.77520329  0.12747913    -0.16000
C2102       C  0.86664281  0.00808563  0.44087030     0.14000
C2103       C  0.84181531  0.98145559  0.45131585     0.01000
C2104       C  0.83790436  0.95379805  0.44154728     0.16000
C2105       C  0.85751256  0.95278494  0.42006350     0.25400
C2106       C  0.88147228  0.97957268  0.40787440    -0.41000
C2107       C  0.88636250  0.00725624  0.41954664     0.32400
C2108       C  0.81851595  0.98282831  0.46980237     0.01100
F2109       F  0.81412711  0.92773983  0.45157877    -0.13300
F2110       F  0.90964282  0.03376360  0.40971732    -0.13800
C2111       C  0.80167701  0.99447731  0.45669936     0.16000
C2112       C  0.77975500  0.99637283  0.47363856     0.25400
C2113       C  0.77413546  0.98665070  0.50432788    -0.40900
C2114       C  0.79013734  0.46961985  0.01796303     0.32400
C2115       C  0.81206016  0.46863114  0.50032529     0.14100
F2116       F  0.80627275  0.00373487  0.42714338    -0.13300
F2117       F  0.78401270  0.45705870  0.04621096    -0.13800
F2118       F  0.76428682  0.00802100  0.45981419    -0.16100
F2119       F  0.82824064  0.45720625  0.51300156    -0.14600
F2120       F  0.87124903  0.03506733  0.45070466    -0.14600
F2121       F  0.85222106  0.92550132  0.41049964    -0.16000
C2122       C  0.60798326  0.97729086  0.42181761     0.15100
C2123       C  0.60999140  0.98794096  0.45173288     0.01000
C2124       C  0.58794814  0.99427069  0.46218104     0.16000
C2125       C  0.56465912  0.99058788  0.44277172     0.25400
C2126       C  0.56321886  0.98079832  0.41245255    -0.41000
C2127       C  0.58504588  0.97391324  0.40236646     0.32400
C2128       C  0.63496560  0.99187320  0.47179825     0.01100
F2129       F  0.58943552  0.00481419  0.49091288    -0.13300
F2130       F  0.58423592  0.96371753  0.37358238    -0.13800
C2131       C  0.66226548  0.50187581  0.46206045     0.16000
C2132       C  0.68501395  0.50126659  0.47883679     0.25400
C2133       C  0.67967607  0.98756013  0.00561116    -0.40900
C2134       C  0.65052855  0.97544590  0.01781860     0.32400
C2135       C  0.62898583  0.97656651  0.49978255     0.14100
F2136       F  0.66949000  0.51851568  0.43609874    -0.13300
F2137       F  0.64394143  0.96307167  0.04614805    -0.13800
F2138       F  0.71371911  0.51750990  0.46869094    -0.16100
F2139       F  0.60030202  0.95914783  0.50960366    -0.14600
F2140       F  0.62815738  0.96976468  0.41145199    -0.14600
F2141       F  0.54417674  0.99756684  0.45337432    -0.16000
C2142       C  0.81723419  0.98674546  0.17681363     0.14000
C2143       C  0.81036545  0.97370543  0.20603255     0.01000
C2144       C  0.78048767  0.95923289  0.21616090     0.16000
C2145       C  0.75783284  0.95778654  0.19749969     0.25400
C2146       C  0.76458090  0.97119678  0.16830915    -0.41000
C2147       C  0.79456532  0.98545744  0.15805789     0.32400
C2148       C  0.83409334  0.97491971  0.22615021     0.01100
F2149       F  0.77329385  0.94699939  0.24455132    -0.13300
F2150       F  0.80220157  0.99895660  0.13028296    -0.13800
C2151       C  0.85844267  0.00255726  0.23543279     0.16000
C2152       C  0.87949395  0.00354457  0.25633642     0.25400
C2153       C  0.87651107  0.97679963  0.26859407    -0.40900
C2154       C  0.85239555  0.94909528  0.25839358     0.32400
C2155       C  0.83157501  0.94826045  0.23741475     0.14100
F2156       F  0.85965044  0.52635238  0.22630965    -0.13300
F2157       F  0.84833248  0.92257303  0.26909242    -0.13800
F2158       F  0.90082246  0.52902559  0.26637893    -0.16100
F2159       F  0.80861724  0.92122410  0.22826262    -0.14600
F2160       F  0.84591711  0.00065416  0.16639721    -0.14600
F2161       F  0.72921474  0.94303997  0.20811644    -0.16000
C2162       C  0.57314449  0.96660677  0.20703895     0.14000
C2163       C  0.60244238  0.97623418  0.21727720     0.01000
C2164       C  0.61092579  0.98792082  0.24682899     0.16000
C2165       C  0.59014819  0.98882335  0.26641686     0.25400
C2166       C  0.56036026  0.97816747  0.25675958    -0.41000
C2167       C  0.55220778  0.96765953  0.22661986     0.32400
C2168       C  0.62411169  0.97314511  0.19787685     0.01100
F2169       F  0.63942753  0.99828119  0.25682148    -0.13300
F2170       F  0.52370753  0.95709291  0.21657640    -0.13800
C2171       C  0.63484677  0.98970599  0.17077495     0.16000
C2172       C  0.65723368  0.98849249  0.15387431     0.25400
C2173       C  0.66930908  0.97080570  0.16402036    -0.40900
C2174       C  0.65781185  0.95356774  0.19074378     0.32400
C2175       C  0.63541331  0.95474378  0.20749427     0.14100
F2176       F  0.62403308  0.50490864  0.16302973    -0.13300
F2177       F  0.66816078  0.93545759  0.20064329    -0.13800
F2178       F  0.66752774  0.50305612  0.12957433    -0.16100
F2179       F  0.62489940  0.93812320  0.23337717    -0.14600
F2180       F  0.56453402  0.95509066  0.17853116    -0.14600
F2181       F  0.59928260  0.00005870  0.29496853    -0.16000
C2182       C  0.89866854  0.88007671  0.46511463     0.14000
C2183       C  0.86995853  0.85839864  0.45498144     0.01000
C2184       C  0.86078453  0.86034963  0.42533481     0.16000
C2185       C  0.88059109  0.88245474  0.40537403     0.25400
C2186       C  0.91001608  0.90333283  0.41478730    -0.41000
C2187       C  0.91859759  0.90250166  0.44516517     0.32400
C2188       C  0.84975692  0.83274264  0.47442699     0.01100
F2189       F  0.83259969  0.84047265  0.41557259    -0.13300
F2190       F  0.94663931  0.92243555  0.45516484    -0.13800
C2191       C  0.83899412  0.83722001  0.50217992     0.16000
C2192       C  0.81694957  0.81171912  0.01893217     0.25400
C2193       C  0.80646863  0.78199803  0.00936963    -0.40900
C2194       C  0.81774978  0.77883526  0.48031283     0.32400
C2195       C  0.83964040  0.80338015  0.46407934     0.14100
F2196       F  0.84710335  0.86426150  0.01032916    -0.13300
F2197       F  0.80804677  0.75073633  0.46949274    -0.13800
F2198       F  0.80460105  0.81752400  0.04348977    -0.16100
F2199       F  0.85063892  0.79856845  0.43785292    -0.14600
F2200       F  0.90781861  0.87873142  0.49385727    -0.14600
F2201       F  0.87089788  0.88322110  0.37670675    -0.16000
C2202       C  0.63945059  0.59800865  0.43389910     0.14000
C2203       C  0.63817035  0.62299603  0.44434918     0.01000
C2204       C  0.61465505  0.62731872  0.43485285     0.16000
C2205       C  0.59300632  0.60732611  0.41432937     0.25400
C2206       C  0.59469357  0.58267373  0.40265639    -0.41000
C2207       C  0.61790750  0.57790860  0.41339938     0.32400
C2208       C  0.66240283  0.64555895  0.46373943     0.01100
F2209       F  0.61311494  0.65140727  0.44494558    -0.13300
F2210       F  0.62037171  0.55421700  0.40368494    -0.13800
C2211       C  0.68691802  0.67034336  0.45020190     0.16000
C2212       C  0.71003217  0.69199789  0.46821895     0.25400
C2213       C  0.70911239  0.68926445  0.50043980    -0.40900
C2214       C  0.68459458  0.66319223  0.01560241     0.32400
C2215       C  0.66116717  0.64246943  0.49556752     0.14100
F2216       F  0.68842476  0.67358966  0.41935675    -0.13300
F2217       F  0.68336680  0.65827396  0.04615973    -0.13800
F2218       F  0.73305979  0.71573890  0.45381909    -0.16100
F2219       F  0.63748303  0.61850587  0.50893189    -0.14600
F2220       F  0.66214543  0.59357103  0.44291799    -0.14600
F2221       F  0.57089403  0.61267096  0.40543828    -0.16000
C2222       C  0.89650272  0.87434574  0.20993933     0.14000
C2223       C  0.86775310  0.85314616  0.22057099     0.01000
C2224       C  0.85947266  0.85558776  0.25047809     0.16000
C2225       C  0.87961522  0.87838651  0.26966669     0.25400
C2226       C  0.90849685  0.89971493  0.25923724    -0.41000
C2227       C  0.91671233  0.89755106  0.22908735     0.32400
C2228       C  0.84593373  0.82853666  0.20075668     0.01100
F2229       F  0.83156204  0.83598920  0.26108011    -0.13300
F2230       F  0.94456270  0.91722157  0.21844364    -0.13800
C2231       C  0.83242083  0.79860500  0.21081941     0.16000
C2232       C  0.80911603  0.77564153  0.19410562     0.25400
C2233       C  0.79946186  0.78208529  0.16658053    -0.40900
C2234       C  0.81378842  0.81184335  0.15585092     0.32400
C2235       C  0.83667650  0.83493371  0.17295554     0.14100
F2236       F  0.84163116  0.79166798  0.23708258    -0.13300
F2237       F  0.80456708  0.81881279  0.12962513    -0.13800
F2238       F  0.79613303  0.74704955  0.20473942    -0.16100
F2239       F  0.84877290  0.86370340  0.16311048    -0.14600
F2240       F  0.90525950  0.87212065  0.18129785    -0.14600
F2241       F  0.87062183  0.87955974  0.29853037    -0.16000
C2242       C  0.63677703  0.60056957  0.23428765     0.14000
C2243       C  0.63038169  0.62105121  0.22005986     0.01000
C2244       C  0.60365841  0.62066501  0.22681275     0.16000
C2245       C  0.58386770  0.60063408  0.24848961     0.25400
C2246       C  0.59067051  0.58070709  0.26392848    -0.41000
C2247       C  0.61711350  0.58047291  0.25598562     0.32400
C2248       C  0.65332856  0.64513322  0.20107514     0.01100
F2249       F  0.59730388  0.64049200  0.21317841    -0.13300
F2250       F  0.62488573  0.56194372  0.27021661    -0.13800
C2251       C  0.65626370  0.64049490  0.17007319     0.16000
C2252       C  0.67944672  0.66313103  0.15280403     0.25400
C2253       C  0.70029172  0.69065570  0.16656839    -0.40900
C2254       C  0.69644171  0.69526899  0.19766154     0.32400
C2255       C  0.67321300  0.67267612  0.21464396     0.14100
F2256       F  0.63693872  0.61386803  0.15671296    -0.13300
F2257       F  0.71509841  0.72160889  0.21190389    -0.13800
F2258       F  0.68183539  0.65765949  0.12292392    -0.16100
F2259       F  0.67043505  0.67742744  0.24467365    -0.14600
F2260       F  0.66286817  0.60108913  0.22822858    -0.14600
F2261       F  0.55850508  0.60142548  0.25484342    -0.16000
C2262       C  0.72694379  0.71492100  0.64740477     0.81600
N2263       N  0.72784643  0.71387024  0.61637491    -0.76700
C2264       C  0.75214382  0.73511129  0.60090795     0.84000
N2265       N  0.77547064  0.75746845  0.61646568    -0.76700
C2266       C  0.77491573  0.75851315  0.64730603     0.84100
N2267       N  0.75072294  0.73719169  0.66254575    -0.78400
C2268       C  0.73369299  0.71271991  0.51959917     0.81600
N2269       N  0.73154372  0.71242571  0.55064134    -0.76700
C2270       C  0.75382044  0.73459038  0.56755339     0.84000
N2271       N  0.77806056  0.75712899  0.55344273    -0.76700
C2272       C  0.78051325  0.75766581  0.52270445     0.84100
N2273       N  0.75834892  0.73544155  0.50598263    -0.78400
C2274       C  0.74189175  0.97347782  0.64901981     0.81600
N2275       N  0.74484790  0.97803159  0.61827046    -0.76700
C2276       C  0.72384865  0.98098645  0.60220860     0.84000
N2277       N  0.70006058  0.97962488  0.61701804    -0.76700
C2278       C  0.69686275  0.97503262  0.64760227     0.84100
N2279       N  0.71784079  0.97200141  0.66335903    -0.78400
C2280       C  0.75027332  0.98819679  0.52211284     0.81600
N2281       N  0.72897677  0.99171625  0.50738554    -0.76700
C2282       C  0.70642301  0.99206874  0.52303395     0.84000
N2283       N  0.70519234  0.98876740  0.55381728    -0.76700
C2284       C  0.72632573  0.98541696  0.56894979     0.84100
N2285       N  0.74876729  0.98505558  0.55304328    -0.78400
C2286       C  0.99192596  0.74161906  0.64698181     0.81600
N2287       N  0.98939180  0.74038158  0.61600548    -0.76700
C2288       C  0.98798824  0.71690050  0.60032910     0.84000
N2289       N  0.98865679  0.69440016  0.61576672    -0.76700
C2290       C  0.99125678  0.69540536  0.64663465     0.84100
N2291       N  0.99299777  0.71910192  0.66206742    -0.78400
C2292       C  0.98252551  0.73669409  0.52008821     0.81600
N2293       N  0.98491502  0.73794171  0.55104550    -0.76700
C2294       C  0.98546947  0.71555980  0.56686272     0.84000
N2295       N  0.98385316  0.69184226  0.55156456    -0.76700
C2296       C  0.98127928  0.69024971  0.52066993     0.84100
N2297       N  0.98058795  0.71267826  0.50516910    -0.78400
O2298       O  0.50908745  0.91090179  0.86929833    -0.86800
C2299       C  0.57276627  0.56412457  0.78930033     1.13200
O2300       O  0.98388986  0.94574888  0.83549872    -1.34600
O2301       O  0.57829099  0.54412860  0.86743030    -0.88300
O2302       O  0.95866437  0.88560468  0.86943390    -0.89000
O2303       O  0.95428385  0.94634494  0.90030854    -0.77800
O2304       O  0.54335272  0.97704011  0.86299385    -0.99900
C2305       C  0.98695023  0.53322179  0.89065897     1.23300
O2306       O  0.95310358  0.97718788  0.83617458    -1.34800
Mn2307     Mn  0.98371291  0.97693127  0.80257653     1.82100
O2308       O  0.98647516  0.50984565  0.89931877    -0.76900
O2309       O  0.55393243  0.56960761  0.86883634    -0.86300
C2310       C  0.98473429  0.53247744  0.77902010     1.14400
C2311       C  0.57426775  0.56452794  0.87858819     1.09100
O2312       O  0.95210573  0.94580804  0.77185008    -0.77800
O2313       O  0.51755810  0.50940939  0.83456296    -1.31500
O2314       O  0.92459737  0.91835569  0.80775276    -0.97000
C2315       C  0.89928190  0.97786286  0.88246115     1.07800
Mn2316     Mn  0.52064945  0.55199027  0.83455425     1.48600
O2317       O  0.89415673  0.95259962  0.87233012    -0.86200
Mn2318     Mn  0.94368082  0.90333349  0.83565395     1.49600
O2319       O  0.50853881  0.91034493  0.80054253    -0.90100
C2320       C  0.53954729  0.97751371  0.89036825     1.21000
C2321       C  0.98284788  0.88982629  0.79020090     1.13000
Mn2322     Mn  0.98473122  0.97732222  0.86878857     1.81000
O2323       O  0.98548797  0.53718167  0.80635396    -0.95200
Mn2324     Mn  0.52397423  0.94325369  0.83461750     1.49300
C2325       C  0.98360307  0.89071927  0.88036257     1.09600
Mn2326     Mn  0.95229741  0.51859736  0.83562926     1.49900
C2327       C  0.89646134  0.97708701  0.79334300     1.12500
O2328       O  0.92589332  0.91848801  0.86507463    -1.01000
O2329       O  0.55305981  0.56945995  0.80015660    -0.90700
C2330       C  0.93092807  0.92292524  0.89234181     1.23800
O2331       O  0.98660746  0.53713888  0.86335647    -1.01400
O2332       O  0.57695529  0.54342202  0.79941111    -0.88800
O2333       O  0.91855343  0.50359194  0.80227659    -0.88400
O2334       O  0.95780026  0.88512545  0.80070030    -0.88500
Mn2335     Mn  0.55958551  0.51129961  0.83390958     1.47900
O2336       O  0.98459990  0.50914611  0.77063533    -0.76900
C2337       C  0.92878331  0.92264997  0.78040481     1.16800
O2338       O  0.51665056  0.97795271  0.89907635    -0.75700
O2339       O  0.51479015  0.97708323  0.77033769    -0.75300
Mn2340     Mn  0.91063375  0.93734887  0.83721783     1.51100
O2341       O  0.92059289  0.50409951  0.87076603    -0.87600
O2342       O  0.54250956  0.97686283  0.80578512    -0.95200
O2343       O  0.89209252  0.95230193  0.80409567    -0.90200
C2344       C  0.53822755  0.97739236  0.77851970     1.14600
C2345       C  0.96313683  0.63158393  0.95995349     0.14000
C2346       C  0.98099748  0.61956416  0.96926232     0.01000
C2347       C  0.99759029  0.62966546  0.99640970     0.16000
C2348       C  0.99776065  0.65245697  0.51343951     0.25400
C2349       C  0.98029294  0.66491728  0.50379144    -0.41000
C2350       C  0.96233493  0.65389907  0.97730308     0.32400
C2351       C  0.98343833  0.59753244  0.94986716     0.01100
F2352       F  0.01656683  0.61928720  0.50518140    -0.13300
F2353       F  0.94477661  0.66502512  0.96772879    -0.13800
C2354       C  0.49501448  0.60581004  0.91978484     0.16000
C2355       C  0.49729007  0.58512830  0.90119295     0.25400
C2356       C  0.98728875  0.55552768  0.91198810    -0.40900
C2357       C  0.97564393  0.54742627  0.94171291     0.32400
C2358       C  0.97366547  0.56832612  0.96049737     0.14100
F2359       F  0.50500346  0.63404925  0.90917602    -0.13300
F2360       F  0.96500885  0.51902963  0.95210652    -0.13800
F2361       F  0.50947112  0.59406601  0.87294393    -0.16100
F2362       F  0.96133623  0.55984031  0.98870598    -0.14600
F2363       F  0.94659128  0.62176511  0.93394067    -0.14600
F2364       F  0.01538853  0.66311052  0.53864778    -0.16000
C2365       C  0.97224727  0.80255581  0.99919626     0.14000
C2366       C  0.98119203  0.80677774  0.96849517     0.01000
C2367       C  0.98962269  0.78752602  0.95487488     0.16000
C2368       C  0.98966794  0.76462071  0.97176910     0.25400
C2369       C  0.98119164  0.76043719  0.00283291    -0.41000
C2370       C  0.97545678  0.78161985  0.51682861     0.32400
C2371       C  0.98204419  0.83119952  0.95016143     0.01100
F2372       F  0.49403440  0.78861243  0.92382337    -0.13300
F2373       F  0.96794711  0.77877630  0.54684395    -0.13800
C2374       C  0.00948513  0.85385407  0.93848421     0.16000
C2375       C  0.01020997  0.87414224  0.91690522     0.25400
C2376       C  0.98329353  0.87189312  0.90627745    -0.40900
C2377       C  0.95591579  0.85040832  0.91989943     0.32400
C2378       C  0.95537624  0.83023556  0.94159630     0.14100
F2379       F  0.03560032  0.85562321  0.94726850    -0.13300
F2380       F  0.92944083  0.84812286  0.91165681    -0.13800
F2381       F  0.03728058  0.89518564  0.90571251    -0.16100
F2382       F  0.92861739  0.80868221  0.95296517    -0.14600
F2383       F  0.96374330  0.82083833  0.01262845    -0.14600
F2384       F  0.49541353  0.74498457  0.95652387    -0.16000
C2385       C  0.96962324  0.61684351  0.67262118     0.14000
C2386       C  0.98854149  0.62295608  0.69796247     0.01000
C2387       C  0.00919857  0.65290224  0.70554416     0.16000
C2388       C  0.01045384  0.67646413  0.68849825     0.25400
C2389       C  0.99114079  0.67046614  0.66346869    -0.41000
C2390       C  0.97101775  0.64041829  0.65536260     0.32400
C2391       C  0.98579158  0.59834356  0.71763158     0.01100
F2392       F  0.02808850  0.65926831  0.72961385    -0.13300
F2393       F  0.95173650  0.63388371  0.63162068    -0.13800
C2394       C  0.49496732  0.57682693  0.70627021     0.16000
C2395       C  0.49404133  0.55503251  0.72619143     0.25400
C2396       C  0.98382460  0.55402010  0.75713470    -0.40900
C2397       C  0.97420859  0.57384843  0.76714921     0.32400
C2398       C  0.97512367  0.59566236  0.74756266     0.14100
F2399       F  0.50520609  0.57869414  0.67734332    -0.13300
F2400       F  0.96377880  0.57215511  0.79598791    -0.13800
F2401       F  0.50357989  0.53635996  0.71603788    -0.16100
F2402       F  0.96563952  0.61434991  0.75786804    -0.14600
F2403       F  0.94900639  0.58808302  0.66536803    -0.14600
F2404       F  0.03081977  0.70516999  0.69622260    -0.16000
C2405       C  0.50623426  0.79617825  0.71115706     0.14000
C2406       C  0.98908712  0.81038751  0.70060236     0.01000
C2407       C  0.97441051  0.80190233  0.67224213     0.16000
C2408       C  0.97613776  0.78031618  0.65419592     0.25400
C2409       C  0.99224190  0.76651141  0.66450144    -0.41000
C2410       C  0.50738100  0.77415709  0.69345950     0.32400
C2411       C  0.98618678  0.83193899  0.72070479     0.01100
F2412       F  0.95820826  0.81436388  0.66217363    -0.13300
F2413       F  0.52307454  0.76138597  0.70420969    -0.13800
C2414       C  0.51290554  0.85971257  0.72736997     0.16000
C2415       C  0.51132642  0.87913760  0.74866982     0.25400
C2416       C  0.98318915  0.87055303  0.76488677    -0.40900
C2417       C  0.95803776  0.84199330  0.75897664     0.32400
C2418       C  0.95963360  0.82288323  0.73719215     0.14100
F2419       F  0.53940672  0.86800260  0.71327343    -0.13300
F2420       F  0.93234139  0.83182677  0.77529336    -0.13800
F2421       F  0.53655944  0.90582437  0.75417688    -0.16100
F2422       F  0.93567927  0.79491197  0.73319426    -0.14600
F2423       F  0.52025386  0.80362357  0.73869482    -0.14600
F2424       F  0.96103500  0.77209430  0.62726379    -0.16000
C2425       C  0.86690600  0.00731299  0.94197654     0.14000
C2426       C  0.84143734  0.98081240  0.95162410     0.01000
C2427       C  0.83648564  0.95309332  0.94075637     0.16000
C2428       C  0.85594877  0.95192817  0.91928514     0.25400
C2429       C  0.88069905  0.97864002  0.90807657    -0.41000
C2430       C  0.88639924  0.00633201  0.92051160     0.32400
C2431       C  0.81860545  0.98236012  0.97063137     0.01100
F2432       F  0.81182682  0.92719534  0.94967172    -0.13300
F2433       F  0.91030594  0.03271371  0.91135611    -0.13800
C2434       C  0.80323203  0.99616935  0.95888161     0.16000
C2435       C  0.78093513  0.99712391  0.97600226     0.25400
C2436       C  0.77340394  0.98415141  0.00537517    -0.40900
C2437       C  0.78940499  0.46924075  0.51742636     0.32400
C2438       C  0.81312584  0.46955893  0.00092611     0.14100
F2439       F  0.80939072  0.00819563  0.93037162    -0.13300
F2440       F  0.78413692  0.45793361  0.54621368    -0.13800
F2441       F  0.76692889  0.01100658  0.96370660    -0.16100
F2442       F  0.82887527  0.45747494  0.01320111    -0.14600
F2443       F  0.87241424  0.03432256  0.95276094    -0.14600
F2444       F  0.84969577  0.92463207  0.90867335    -0.16000
C2445       C  0.60393353  0.97022893  0.92178506     0.15100
C2446       C  0.60808801  0.98328435  0.95085712     0.01000
C2447       C  0.58858386  0.99330224  0.96058566     0.16000
C2448       C  0.56556949  0.99059523  0.94139447     0.25400
C2449       C  0.56208513  0.97837463  0.91192739    -0.41000
C2450       C  0.58152634  0.96818503  0.90239925     0.32400
C2451       C  0.63296903  0.98646477  0.97058153     0.01100
F2452       F  0.59240630  0.00659559  0.98826991    -0.13300
F2453       F  0.57878283  0.95595631  0.87426754    -0.13800
C2454       C  0.66282039  0.49934606  0.95992786     0.16000
C2455       C  0.68552580  0.49896308  0.97696893     0.25400
C2456       C  0.68220017  0.99373649  0.50644093    -0.40900
C2457       C  0.65237718  0.97768895  0.51707464     0.32400
C2458       C  0.62738104  0.97466840  0.00035129     0.14100
F2459       F  0.66976129  0.51338604  0.93238527    -0.13300
F2460       F  0.64553400  0.96158332  0.54335870    -0.13800
F2461       F  0.71364487  0.51247303  0.96511558    -0.16100
F2462       F  0.59918603  0.96109867  0.01205709    -0.14600
F2463       F  0.62152068  0.95917834  0.91214033    -0.14600
F2464       F  0.54751707  0.00102069  0.95120192    -0.16000
C2465       C  0.81757174  0.98695486  0.67703736     0.14000
C2466       C  0.80995656  0.97289847  0.70575560     0.01000
C2467       C  0.77975479  0.95757907  0.71485345     0.16000
C2468       C  0.75758033  0.95676931  0.69586768     0.25400
C2469       C  0.76515175  0.97161684  0.66740520    -0.41000
C2470       C  0.79538545  0.98624900  0.65794896     0.32400
C2471       C  0.83334640  0.97424481  0.72648440     0.01100
F2472       F  0.77179148  0.94406362  0.74262786    -0.13300
F2473       F  0.80374135  0.00081200  0.63074708    -0.13800
C2474       C  0.85664925  0.00193869  0.73711116     0.16000
C2475       C  0.87762373  0.00303369  0.75818892     0.25400
C2476       C  0.87558085  0.97630914  0.76928101    -0.40900
C2477       C  0.85238656  0.94859148  0.75794494     0.32400
C2478       C  0.83163878  0.94766496  0.73680384     0.14100
F2479       F  0.86144871  0.52872911  0.72433874    -0.13300
F2480       F  0.84926969  0.92211894  0.76753207    -0.13800
F2481       F  0.90277500  0.53130812  0.76428701    -0.16100
F2482       F  0.80963514  0.92062182  0.72646660    -0.14600
F2483       F  0.84656242  0.00145423  0.66752295    -0.14600
F2484       F  0.72863711  0.94137473  0.70548883    -0.16000
C2485       C  0.57500085  0.96986675  0.70654054     0.14000
C2486       C  0.60415495  0.97936689  0.71720306     0.01000
C2487       C  0.61198497  0.99017936  0.74712772     0.16000
C2488       C  0.59067779  0.99013953  0.76666475     0.25400
C2489       C  0.56099692  0.97945154  0.75658912    -0.41000
C2490       C  0.55354322  0.97002232  0.72606931     0.32400
C2491       C  0.62621866  0.97673133  0.69793928     0.01100
F2492       F  0.64034904  0.00054065  0.75755824    -0.13300
F2493       F  0.52523270  0.95966607  0.71554655    -0.13800
C2494       C  0.63697954  0.99336252  0.67087544     0.16000
C2495       C  0.65937219  0.99218384  0.65392106     0.25400
C2496       C  0.67147730  0.97447322  0.66396579    -0.40900
C2497       C  0.65997284  0.95720522  0.69068845     0.32400
C2498       C  0.63758276  0.95835912  0.70748710     0.14100
F2499       F  0.62200339  0.50270057  0.65987459    -0.13300
F2500       F  0.67020495  0.93897548  0.70050713    -0.13800
F2501       F  0.66544613  0.50030449  0.62693457    -0.16100
F2502       F  0.62702958  0.94160905  0.73328732    -0.14600
F2503       F  0.56701591  0.95928880  0.67763984    -0.14600
F2504       F  0.59920796  0.00050590  0.79558197    -0.16000
C2505       C  0.89935274  0.87805897  0.96540639     0.14000
C2506       C  0.87106954  0.85535486  0.95538620     0.01000
C2507       C  0.86190757  0.85607566  0.92539509     0.16000
C2508       C  0.88108419  0.87846408  0.90526331     0.25400
C2509       C  0.90996989  0.90076703  0.91474457    -0.41000
C2510       C  0.91872336  0.90064000  0.94523681     0.32400
C2511       C  0.85095084  0.83038149  0.97565772     0.01100
F2512       F  0.83421340  0.83493489  0.91557166    -0.13300
F2513       F  0.94634818  0.92165585  0.95527661    -0.13800
C2514       C  0.83889511  0.83577132  0.00201218     0.16000
C2515       C  0.81739569  0.81262105  0.51873640     0.25400
C2516       C  0.80593126  0.78326695  0.50740784    -0.40900
C2517       C  0.81952628  0.77667680  0.98376967     0.32400
C2518       C  0.84176110  0.80069873  0.96717853     0.14100
F2519       F  0.84819730  0.86540986  0.51239874    -0.13300
F2520       F  0.81060440  0.74820316  0.97471805    -0.13800
F2521       F  0.80645653  0.81765326  0.54487765    -0.16100
F2522       F  0.85390081  0.79505174  0.94233769    -0.14600
F2523       F  0.90855495  0.87776862  0.99440087    -0.14600
F2524       F  0.87125855  0.87814537  0.87639535    -0.16000
C2525       C  0.64054582  0.59972742  0.93351393     0.14000
C2526       C  0.63778405  0.62318741  0.94605111     0.01000
C2527       C  0.61298632  0.62612073  0.93834446     0.16000
C2528       C  0.59166213  0.60646494  0.91732131     0.25400
C2529       C  0.59495006  0.58356302  0.90341831    -0.41000
C2530       C  0.61929786  0.57992844  0.91262477     0.32400
C2531       C  0.66186870  0.64576699  0.96559865     0.01100
F2532       F  0.60986467  0.64855940  0.95067006    -0.13300
F2533       F  0.62320881  0.55771763  0.90096396    -0.13800
C2534       C  0.68566512  0.67136932  0.95228920     0.16000
C2535       C  0.70882196  0.69288701  0.97037437     0.25400
C2536       C  0.70873392  0.68915337  0.00241221    -0.40900
C2537       C  0.68424769  0.66408156  0.51383565     0.32400
C2538       C  0.66142520  0.64173103  0.99727530     0.14100
F2539       F  0.68644691  0.67553137  0.92159582    -0.13300
F2540       F  0.68209402  0.66014714  0.54457136    -0.13800
F2541       F  0.73103910  0.71752813  0.95626843    -0.16100
F2542       F  0.63852453  0.61691320  0.01041174    -0.14600
F2543       F  0.66439934  0.59654144  0.94087079    -0.14600
F2544       F  0.56815942  0.61030103  0.91031378    -0.16000
C2545       C  0.89552766  0.87578040  0.70884527     0.14000
C2546       C  0.86675406  0.85432984  0.71916151     0.01000
C2547       C  0.85818197  0.85635911  0.74907852     0.16000
C2548       C  0.87821608  0.87878263  0.76869015     0.25400
C2549       C  0.90722448  0.90016507  0.75864891    -0.41000
C2550       C  0.91557345  0.89864697  0.72837595     0.32400
C2551       C  0.84541549  0.82963158  0.69912424     0.01100
F2552       F  0.83016384  0.83662621  0.75932544    -0.13300
F2553       F  0.94344327  0.91857300  0.71797409    -0.13800
C2554       C  0.83224007  0.79970934  0.70913173     0.16000
C2555       C  0.80953312  0.77655182  0.69207151     0.25400
C2556       C  0.80013685  0.78279442  0.66427760    -0.40900
C2557       C  0.81427754  0.81252925  0.65350853     0.32400
C2558       C  0.83655228  0.83582298  0.67096415     0.14100
F2559       F  0.84118719  0.79295485  0.73567705    -0.13300
F2560       F  0.80539625  0.81926469  0.62691993    -0.13800
F2561       F  0.79681197  0.74796636  0.70267659    -0.16100
F2562       F  0.84839211  0.86455215  0.66108157    -0.14600
F2563       F  0.90453623  0.87404747  0.68017170    -0.14600
F2564       F  0.86902833  0.87951993  0.79758095    -0.16000
C2565       C  0.63955944  0.60505576  0.73646300     0.14000
C2566       C  0.63161946  0.62325949  0.71987093     0.01000
C2567       C  0.60372776  0.62100431  0.72478648     0.16000
C2568       C  0.58418507  0.60128255  0.74684934     0.25400
C2569       C  0.59228446  0.58336018  0.76423796    -0.41000
C2570       C  0.62005921  0.58513357  0.75834869     0.32400
C2571       C  0.65408751  0.64715506  0.70035655     0.01100
F2572       F  0.59597373  0.63879161  0.70902983    -0.13300
F2573       F  0.62920085  0.56883058  0.77480999    -0.13800
C2574       C  0.65596918  0.64244229  0.66913787     0.16000
C2575       C  0.67907027  0.66473070  0.65146682     0.25400
C2576       C  0.70076296  0.69200236  0.66501514    -0.40900
C2577       C  0.69776527  0.69681085  0.69628158     0.32400
C2578       C  0.67474298  0.67452551  0.71368110     0.14100
F2579       F  0.63585716  0.61598830  0.65600326    -0.13300
F2580       F  0.71711575  0.72301974  0.71034740    -0.13800
F2581       F  0.68055727  0.65914433  0.62142169    -0.16100
F2582       F  0.67288309  0.67942476  0.74387007    -0.14600
F2583       F  0.66684872  0.60757769  0.73234955    -0.14600
F2584       F  0.55769306  0.60030516  0.75156868    -0.16000
loop_ 
_geom_bond_atom_site_label_1 
_geom_bond_atom_site_label_2 
_geom_bond_distance 
_geom_bond_site_symmetry_2 
_ccdc_geom_bond_type 
C1            N2   1.363       .  A
C1            N6   1.357       .  A
C1          C315   1.488       .  S
N2            C3   1.361       .  A
C3            N4   1.358       .  A
C3            C9   1.466       .  S
N4            C5   1.353       .  A
C5            N6   1.352       .  A
C5          C295   1.475       .  S
C7            N8   1.363       .  A
C7           N12   1.359       .  A
C7          C598   1.487       .  S
N8            C9   1.360       .  A
C9           N10   1.356       .  A
N10          C11   1.353       .  A
C11          N12   1.356       .  A
C11         C255   1.473       .  S
C13          N14   1.362       .  A
C13          N18   1.358       .  A
C13         C208   1.486       .  S
N14          C15   1.362       .  A
C15          N16   1.359       .  A
C15          C23   1.469       .  S
N16          C17   1.356       .  A
C17          N18   1.355       .  A
C17         C235   1.477       .  S
C19          N20   1.359       .  A
C19          N24   1.361       .  A
C19         C498   1.488       .  S
N20          C21   1.357       .  A
C21          N22   1.357       .  A
C21         C195   1.486       .  S
N22          C23   1.358       .  A
C23          N24   1.360       .  A
C25          N26   1.362       .  A
C25          N30   1.359       .  A
C25         C148   1.492       .  S
N26          C27   1.362       .  A
C27          N28   1.358       .  A
C27          C33   1.470       .  S
N28          C29   1.357       .  A
C29          N30   1.358       .  A
C29         C128   1.480       .  S
C31          N32   1.361       .  A
C31          N36   1.359       .  A
C31         C431   1.485       .  S
N32          C33   1.359       .  A
C33          N34   1.359       .  A
N34          C35   1.357       .  A
C35          N36   1.356       .  A
C35          C88   1.481       .  S
O37         Mn63   2.095       .  S
O37        C1356   1.272   1_455  A
C38         C308   1.483       .  S
C38          O71   1.270       .  A
C38          O68   1.272       .  A
O39         Mn46   2.168       .  S
O39         Mn57   2.123       .  S
O39         Mn61   2.168       .  S
O39       Mn1355   2.115       .  S
O40         Mn74   2.080       .  S
O40          C50   1.269       .  A
O41         Mn57   2.074       .  S
O41          C64   1.268       .  A
O42         Mn61   2.092       .  S
O42          C69   1.251       .  A
O43         Mn63   1.951       .  S
O43        Mn720   1.950       .  S
O43          C59   1.216       .  S
C44          C95   1.474       .  S
C44          O47   1.252       .  A
C44          O70   1.215       .  S
O45         Mn46   2.166       .  S
O45         Mn79   2.119       .  S
O45         Mn61   2.164       .  S
O45        Mn711   2.122       .  S
Mn46         O51   2.104       .  S
Mn46        O721   2.115       .  S
Mn46       O1370   2.106       .  S
Mn46       O1990   2.160       .  S
O47        Mn707   2.103   1_545  S
O48         Mn55   2.107       .  S
O48          C50   1.274       .  A
C49         C135   1.484       .  S
C49          O75   1.253       .  A
C49          O62   1.218       .  S
C50         C268   1.492       .  S
O51          C76   1.252       .  A
O52         Mn55   2.121       .  S
O52         Mn74   2.120       .  S
O52       Mn1984   2.164   1_445  S
O52       Mn1999   2.165   1_445  S
O53         Mn57   1.951       .  S
O53         Mn79   1.964       .  S
O53          C76   1.216       .  S
C54         C168   1.494       .  S
C54          O56   1.272       .  A
C54         O726   1.272       .  A
Mn55         O68   2.090       .  S
Mn55       O1362   1.950   1_455  S
Mn55       O1354   1.970   1_455  S
O56         Mn79   2.094       .  S
Mn57         O73   2.115       .  S
Mn57         O67   1.958       .  S
O58         Mn63   2.084       .  S
O58        C1352   1.270   1_455  A
C59         C188   1.480       .  S
C59          O77   1.251       .  A
C60         C155   1.498       .  S
C60          O73   1.275       .  A
C60        O1350   1.270       .  A
Mn61        O693   2.109       .  S
Mn61       O1369   2.106       .  S
Mn61       O1990   2.163       .  S
O62         Mn65   1.958       .  S
O62       Mn1347   1.967       .  S
Mn63       O1331   2.115   1_455  S
Mn63         O81   1.960       .  S
C64         C115   1.484       .  S
C64        O1329   1.272       .  A
Mn65         O72   2.096       .  S
Mn65         O80   2.088       .  S
Mn65        O691   2.121   1_545  S
Mn65         O70   1.953       .  S
C66         C215   1.493       .  S
C66          O82   1.271       .  A
C66         O718   1.272       .  A
O67         Mn79   1.953       .  S
O67          C69   1.219       .  S
C69         C248   1.478       .  S
O70       Mn1347   1.949       .  S
O71         Mn74   2.083       .  S
O72         C712   1.272   1_545  A
Mn74        O689   1.952   1_545  S
Mn74        O727   1.952   1_545  S
O75        Mn692   2.108   1_545  S
C76         C288   1.480       .  S
O77       Mn1353   2.102   1_455  S
O78       Mn1338   2.107   1_455  S
O78          C83   1.254       .  A
Mn79         O82   2.085       .  S
O80         C700   1.271   1_545  A
O81        Mn720   1.951       .  S
O81          C83   1.218       .  S
C83         C228   1.482       .  S
C84          C85   1.403       .  A
C84          C89   1.396       .  A
C84         F102   1.359       .  S
C85          C90   1.473       .  S
C85          C86   1.403       .  A
C86         C410   1.398       .  A
C86         F414   1.358       .  S
C87          C88   1.408       .  A
C87         C409   1.398   1_554  A
C87         F103   1.357       .  S
C88         C412   1.409   1_554  A
C89         C411   1.409       .  A
C89          F92   1.358       .  S
C90          C97   1.405       .  A
C90        C1385   1.401       .  A
F91         C409   1.358   1_554  S
C93          C94   1.392   1_655  A
C93        C1382   1.401       .  A
C93          F98   1.358   1_655  S
C94        C1387   1.411   1_455  A
C94         F100   1.359       .  S
C95          C96   1.406       .  A
C95        C1386   1.410       .  A
C96          C97   1.400       .  A
C96          F99   1.358       .  S
C97         F101   1.357       .  S
C104        C105   1.401       .  A
C104        C432   1.399       .  A
C104        F122   1.358       .  S
C105        C110   1.473       .  S
C105        C106   1.402       .  A
C106        C107   1.393       .  A
C106       F1403   1.359       .  S
C107        C108   1.413       .  A
C107       F1415   1.358       .  S
C108        C354   1.487       .  S
C108        C432   1.415       .  A
C109        C427   1.402       .  A
C109        C431   1.412       .  A
C109        F112   1.357       .  S
C110        C113   1.402       .  A
C110        C117   1.401       .  A
F111       C1398   1.359       .  S
C113        C114   1.397       .  A
C113        F118   1.358       .  S
C114        C115   1.411       .  A
C114        F120   1.357       .  S
C115        C116   1.413       .  A
C116        C117   1.394       .  A
C116        F119   1.358       .  S
C117        F121   1.358       .  S
F123       C1399   1.357       .  S
C124        C125   1.404       .  A
C124        C129   1.403       .  A
C124        F142   1.358       .  S
C125        C130   1.479       .  S
C125        C126   1.404       .  A
C126        C127   1.397       .  A
C126        F131   1.358       .  S
C127        C128   1.406       .  A
C127        F143   1.358       .  S
C128        C129   1.410       .  A
C129        F132   1.358       .  S
C130        C137   1.402       .  A
C130       C1425   1.405       .  A
C133        C134   1.403       .  A
C133       C1422   1.405       .  A
C133        F138   1.357   1_655  S
C134       C1427   1.408       .  A
C134        F140   1.357   1_655  S
C135        C136   1.411       .  A
C135       C1426   1.409       .  A
C136        C137   1.395       .  A
C136        F139   1.359       .  S
C137        F141   1.358       .  S
C144        C149   1.399       .  A
C144       C1437   1.405   1_455  A
C144        F162   1.358       .  S
C145        C150   1.484       .  S
C145        C146   1.404       .  A
C145       C1436   1.403       .  A
C146        C147   1.404       .  A
C146        F151   1.357       .  S
C147        C148   1.412       .  A
C147        F163   1.358       .  S
C148       C1441   1.412       .  A
C149       C1440   1.410   1_455  A
C149        F152   1.358       .  S
C150        C157   1.405       .  A
C150       C1445   1.401       .  A
C153        C154   1.398       .  A
C153       C1442   1.402   1_455  A
C153        F158   1.358       .  S
C154       C1447   1.416   1_455  A
C154        F160   1.358       .  S
C155        C156   1.413       .  A
C155       C1446   1.417       .  A
C156        C157   1.405       .  A
C156        F159   1.358       .  S
C157        F161   1.358       .  S
C164        C165   1.403       .  A
C164        C169   1.399       .  A
C164        F182   1.358       .  S
C165        C170   1.480       .  S
C165        C166   1.402       .  A
C166        C167   1.400       .  A
C166        F171   1.358       .  S
C167        C168   1.415       .  A
C167        F183   1.358       .  S
C168        C169   1.414       .  A
C169        F172   1.358       .  S
C170        C173   1.402       .  A
C170        C823   1.404       .  A
C173        C174   1.396       .  A
C173        F178   1.358       .  S
C174        C175   1.412       .  A
C174        F180   1.357       .  S
C175        C342   1.489       .  S
C175       C1145   1.412       .  A
C176       C1144   1.412       .  A
C176        C500   1.402   1_554  A
C176        F179   1.357       .  S
C177        C816   1.404       .  A
C177        C499   1.403       .  A
C177        F181   1.358       .  S
C184        C185   1.404       .  A
C184        C189   1.393       .  A
C184        F202   1.358       .  S
C185        C190   1.482       .  S
C185        C186   1.407       .  A
C186        C187   1.402       .  A
C186        F191   1.357       .  S
C187        C188   1.408       .  A
C187        F203   1.358       .  S
C188        C189   1.410       .  A
C189        F192   1.359       .  S
C190        C197   1.405       .  A
C190        C839   1.406       .  A
C193        C194   1.397       .  A
C193        C836   1.407   1_545  A
C193        F198   1.358       .  S
C194       C1164   1.408   1_545  A
C194        F200   1.358       .  S
C195        C196   1.411       .  A
C195       C1163   1.409   1_554  A
C196        C520   1.400   1_554  A
C196        F199   1.358       .  S
C197        C519   1.400       .  A
C197        F201   1.358       .  S
C204        C205   1.406       .  A
C204        C209   1.403       .  A
C204        F222   1.358       .  S
C205        C210   1.484       .  S
C205        C206   1.404       .  A
C206        C207   1.396       .  A
C206        F211   1.358       .  S
C207        C208   1.410       .  A
C207        F223   1.358       .  S
C208        C209   1.410       .  A
C209        F212   1.358       .  S
C210        C213   1.405       .  A
C210        C217   1.403       .  A
C213        C214   1.401       .  A
C213        F864   1.358       .  S
C214        C215   1.414       .  A
C214        F866   1.357       .  S
C215        C216   1.414       .  A
C216        C217   1.396       .  A
C216        F219   1.358       .  S
C217        F221   1.358       .  S
F218        C859   1.358   1_545  S
F220        C860   1.357       .  S
C224        C225   1.406       .  A
C224        C229   1.403       .  A
C224        F242   1.357       .  S
C225        C230   1.479       .  S
C225        C226   1.402       .  A
C226        C227   1.393       .  A
C226        F231   1.359       .  S
C227        C228   1.411       .  A
C227        F243   1.359       .  S
C228        C229   1.409       .  A
C229        F232   1.357       .  S
C230        C233   1.405       .  A
C230        C237   1.405       .  A
C233        C234   1.401       .  A
C233        F884   1.358       .  S
C234        C235   1.408       .  A
C234        F886   1.358       .  S
C235        C236   1.406       .  A
C236        C237   1.396       .  A
C236        F239   1.358       .  S
C237        F241   1.358       .  S
F238        C879   1.358   1_545  S
F240        C880   1.358   1_545  S
C244        C245   1.404       .  A
C244        C249   1.400       .  A
C244        F262   1.358       .  S
C245        C250   1.475       .  S
C245        C246   1.403       .  A
C246        C247   1.392       .  A
C246        F251   1.358       .  S
C247        C248   1.409       .  A
C247        F263   1.358       .  S
C248        C249   1.409       .  A
C249        F252   1.358       .  S
C250        C253   1.404       .  A
C250        C257   1.404       .  A
C253        C577   1.398       .  A
C253        F581   1.358       .  S
C254        C255   1.408       .  A
C254        C576   1.398       .  A
C254        F260   1.358       .  S
C255        C579   1.405   1_554  A
C256        C257   1.395       .  A
C256        C578   1.406       .  A
C256        F259   1.358       .  S
C257        F261   1.358       .  S
F258        C576   1.358       .  S
C264        C265   1.400       .  A
C264        C269   1.399       .  A
C264        F282   1.358       .  S
C265        C270   1.475       .  S
C265        C266   1.401       .  A
C266        C267   1.400       .  A
C266        F271   1.358       .  S
C267        C268   1.412       .  A
C267        F283   1.357       .  S
C268        C269   1.416       .  A
C269        F272   1.358       .  S
C270        C273   1.399       .  A
C270        C277   1.401       .  A
C273        C274   1.397       .  A
C273        F278   1.358       .  S
C274        C275   1.417       .  A
C274        F280   1.358       .  S
C275        C330   1.495       .  S
C275        C599   1.414       .  A
C276        C598   1.411       .  A
C276        C600   1.400   1_554  A
C276        F279   1.357       .  S
C277        C599   1.402       .  A
C277        F281   1.357       .  S
C284        C285   1.407       .  A
C284        C289   1.401       .  A
C284        F302   1.358       .  S
C285        C290   1.480       .  S
C285        C286   1.403       .  A
C286        C287   1.392       .  A
C286        F291   1.358       .  S
C287        C288   1.410       .  A
C287        F303   1.359       .  S
C288        C289   1.408       .  A
C289        F292   1.358       .  S
C290        C293   1.406       .  A
C290        C297   1.406       .  A
C293        C294   1.395       .  A
C293        F298   1.358       .  S
C294        C295   1.406       .  A
C294        F300   1.358       .  S
C295        C296   1.407       .  A
C296        C297   1.399       .  A
C296        F299   1.358       .  S
C297        F301   1.358       .  S
C304        C305   1.400       .  A
C304        C309   1.395       .  A
C304        F322   1.358       .  S
C305        C310   1.470       .  S
C305        C306   1.401       .  A
C306        C307   1.398       .  A
C306        F311   1.358       .  S
C307        C308   1.412       .  A
C307        F323   1.357       .  S
C308        C309   1.412       .  A
C309        F312   1.358       .  S
C310        C313   1.401       .  A
C310        C317   1.398       .  A
C313        C314   1.402       .  A
C313        F318   1.358       .  S
C314        C315   1.413       .  A
C314        F320   1.357       .  S
C315        C316   1.415       .  A
C316        C317   1.392       .  A
C316        F319   1.358       .  S
C317        F321   1.359       .  S
C324        N325   1.363       .  A
C324        N329   1.358       .  A
C324        C638   1.490       .  S
N325        C326   1.361       .  A
C326        N327   1.359       .  A
C326        C332   1.468       .  S
N327        C328   1.353       .  A
C328        N329   1.353       .  A
C328        C618   1.476       .  S
C330        N331   1.364       .  A
C330        N335   1.357       .  A
N331        C332   1.363       .  A
C332        N333   1.356       .  A
N333        C334   1.352       .  A
C334        N335   1.354       .  A
C334        C578   1.474       .  S
C336        N337   1.362       .  A
C336        N341   1.358       .  A
C336        C531   1.486       .  S
N337        C338   1.361       .  A
C338        N339   1.358       .  A
C338        C346   1.470       .  S
N339        C340   1.355       .  A
C340        N341   1.356       .  A
C340        C558   1.478       .  S
C342        N343   1.359       .  A
C342        N347   1.362       .  A
N343        C344   1.357       .  A
C344        N345   1.356       .  A
C344        C518   1.483       .  S
N345        C346   1.358       .  A
C346        N347   1.360       .  A
C348        N349   1.360       .  A
C348        N353   1.360       .  A
C348        C471   1.489       .  S
N349        C350   1.362       .  A
C350        N351   1.357       .  A
C350        C356   1.468       .  S
N351        C352   1.357       .  A
C352        N353   1.360       .  A
C352        C451   1.481       .  S
C354        N355   1.358       .  A
C354        N359   1.358       .  A
N355        C356   1.356       .  A
C356        N357   1.360       .  A
N357        C358   1.358       .  A
C358        N359   1.355       .  A
C358        C411   1.478       .  S
O360       Mn386   2.082       .  S
O360       C1679   1.269   1_455  A
C361        C631   1.486       .  S
C361        O394   1.271       .  A
C361        O391   1.270       .  A
O362       Mn369   2.165       .  S
O362       Mn380   2.122       .  S
O362       Mn384   2.169       .  S
O362      Mn1678   2.115       .  S
O363       Mn397   2.080       .  S
O363        C373   1.269       .  A
O364       Mn380   2.090       .  S
O364        C387   1.270       .  A
O365       Mn384   2.103       .  S
O365        C392   1.252       .  A
O366      Mn1043   1.950       .  S
O366       Mn386   1.948       .  S
O366        C382   1.217       .  S
C367        C418   1.479       .  S
C367        O370   1.253       .  A
C367        O393   1.214       .  S
O368      Mn1034   2.122       .  S
O368       Mn369   2.163       .  S
O368       Mn402   2.116       .  S
O368       Mn384   2.163       .  S
Mn369      O1044   2.107       .  S
Mn369       O374   2.105       .  S
Mn369      O1693   2.101       .  S
Mn369      O2313   2.164       .  S
O370      Mn1030   2.114   1_545  S
O371       Mn378   2.104       .  S
O371        C373   1.274       .  A
C372        C458   1.485       .  S
C372        O398   1.253       .  A
C372        O385   1.219       .  S
C373        C591   1.492       .  S
O374        C399   1.252       .  A
O375      Mn2307   2.164   1_445  S
O375       Mn378   2.117       .  S
O375       Mn397   2.121       .  S
O375      Mn2322   2.164   1_445  S
O376       Mn380   1.955       .  S
O376       Mn402   1.960       .  S
O376        C399   1.215       .  S
C377        C491   1.491       .  S
C377       O1049   1.272       .  A
C377        O379   1.271       .  A
Mn378       O391   2.085       .  S
Mn378      O1685   1.948   1_455  S
Mn378      O1677   1.968   1_455  S
O379       Mn402   2.091       .  S
Mn380       O396   2.117       .  S
Mn380       O390   1.958       .  S
O381       Mn386   2.077       .  S
O381       C1675   1.269   1_455  A
C382        C511   1.479       .  S
C382        O400   1.251       .  A
C383        C478   1.499       .  S
C383       O1673   1.270       .  A
C383        O396   1.276       .  A
Mn384      O1016   2.108       .  S
Mn384      O1692   2.102       .  S
Mn384      O2313   2.165       .  S
O385      Mn1670   1.972       .  S
O385       Mn388   1.959       .  S
Mn386      O1654   2.114   1_455  S
Mn386       O404   1.955       .  S
C387        C438   1.487       .  S
C387       O1652   1.270       .  A
Mn388       O395   2.095       .  S
Mn388       O403   2.086       .  S
Mn388      O1014   2.122   1_545  S
Mn388       O393   1.952       .  S
C389        C538   1.492       .  S
C389       O1041   1.273       .  A
C389        O405   1.271       .  A
O390       Mn402   1.951       .  S
O390        C392   1.217       .  S
C392        C571   1.481       .  S
O393      Mn1670   1.949       .  S
O394       Mn397   2.089       .  S
O395       C1035   1.272   1_545  A
Mn397      O1012   1.954   1_545  S
Mn397      O1050   1.950   1_545  S
O398      Mn1015   2.107   1_545  S
C399        C611   1.479       .  S
O400      Mn1676   2.100   1_455  S
O401      Mn1661   2.104   1_455  S
O401        C406   1.252       .  A
Mn402       O405   2.085       .  S
O403       C1023   1.271   1_545  A
O404      Mn1043   1.951       .  S
O404        C406   1.217       .  S
C406        C551   1.478       .  S
C407        C408   1.405       .  A
C407        C412   1.398       .  A
C407        F425   1.358       .  S
C408        C413   1.478       .  S
C408        C409   1.403       .  A
C410        C411   1.408       .  A
C410        F426   1.357       .  S
C412        F415   1.358       .  S
C413       C1708   1.401       .  A
C413        C420   1.407       .  A
C416       C1705   1.401       .  A
C416        C417   1.393       .  A
C416        F421   1.358   1_655  S
C417       C1710   1.412       .  A
C417        F423   1.359   1_655  S
C418       C1709   1.411       .  A
C418        C419   1.407       .  A
C419        C420   1.402       .  A
C419        F422   1.357       .  S
C420        F424   1.357       .  S
C427        C428   1.403   1_554  A
C427        F445   1.358       .  S
C428        C433   1.476       .  S
C428        C429   1.403       .  A
C429        C430   1.393       .  A
C429       F1726   1.359       .  S
C430        C431   1.410   1_556  A
C430       F1738   1.358       .  S
C432        F435   1.357       .  S
C433        C436   1.402       .  A
C433        C440   1.403       .  A
F434       C1721   1.359       .  S
C436        C437   1.394       .  A
C436        F441   1.358       .  S
C437        C438   1.412       .  A
C437        F443   1.358       .  S
C438        C439   1.414       .  A
C439        C440   1.399       .  A
C439        F442   1.358       .  S
C440        F444   1.358       .  S
F446       C1722   1.358       .  S
C447        C448   1.405       .  A
C447        C452   1.403       .  A
C447        F465   1.358       .  S
C448        C453   1.481       .  S
C448        C449   1.405       .  A
C449        C450   1.398       .  A
C449        F454   1.358       .  S
C450        C451   1.406       .  A
C450        F466   1.358       .  S
C451        C452   1.410       .  A
C452        F455   1.358       .  S
C453       C1748   1.405       .  A
C453        C460   1.402       .  A
C456       C1745   1.404       .  A
C456        C457   1.402       .  A
C456        F461   1.357   1_655  S
C457       C1750   1.408       .  A
C457        F463   1.357   1_655  S
C458       C1749   1.409       .  A
C458        C459   1.411       .  A
C459        C460   1.396       .  A
C459        F462   1.358       .  S
C460        F464   1.358       .  S
C467       C1760   1.405   1_455  A
C467        C472   1.397       .  A
C467        F485   1.358       .  S
C468        C473   1.491       .  S
C468       C1759   1.407       .  A
C468        C469   1.407       .  A
C469        C470   1.405       .  A
C469        F474   1.358       .  S
C470        C471   1.411       .  A
C470        F486   1.358       .  S
C471       C1764   1.408       .  A
C472       C1763   1.410   1_455  A
C472        F475   1.358       .  S
C473       C1768   1.403       .  A
C473        C480   1.407       .  A
C476       C1765   1.402   1_455  A
C476        C477   1.396       .  A
C476        F481   1.358       .  S
C477       C1770   1.416   1_455  A
C477        F483   1.358       .  S
C478       C1769   1.416       .  A
C478        C479   1.413       .  A
C479        C480   1.406       .  A
C479        F482   1.358       .  S
C480        F484   1.358       .  S
C487        C488   1.403       .  A
C487        C492   1.398       .  A
C487        F505   1.358       .  S
C488        C493   1.478       .  S
C488        C489   1.402       .  A
C489        C490   1.399       .  A
C489        F494   1.358       .  S
C490        C491   1.414       .  A
C490        F506   1.358       .  S
C491        C492   1.414       .  A
C492        F495   1.358       .  S
C493        C496   1.402       .  A
C493       C1146   1.403       .  A
C496        C497   1.395       .  A
C496        F501   1.358       .  S
C497        C498   1.411   1_556  A
C497        F503   1.357       .  S
C498        C822   1.412       .  A
C499        C821   1.413       .  A
C499        F502   1.357       .  S
C500       C1139   1.403       .  A
C500        F504   1.358   1_556  S
C507        C508   1.405       .  A
C507        C512   1.392       .  A
C507        F525   1.358       .  S
C508        C513   1.484       .  S
C508        C509   1.408       .  A
C509        C510   1.402       .  A
C509        F514   1.357       .  S
C510        C511   1.407       .  A
C510        F526   1.358       .  S
C511        C512   1.409       .  A
C512        F515   1.359       .  S
C513       C1162   1.406       .  A
C513        C520   1.405       .  A
C516       C1159   1.406   1_545  A
C516        C517   1.397       .  A
C516        F521   1.358       .  S
C517        C841   1.410   1_546  A
C517        F523   1.357       .  S
C518        C840   1.408       .  A
C518        C519   1.410       .  A
C519        F522   1.358       .  S
C520        F524   1.358   1_556  S
C527        C528   1.406       .  A
C527        C532   1.402       .  A
C527        F545   1.358       .  S
C528        C533   1.484       .  S
C528        C529   1.405       .  A
C529        C530   1.396       .  A
C529        F534   1.358       .  S
C530        C531   1.410       .  A
C530        F546   1.358       .  S
C531        C532   1.410       .  A
C532        F535   1.357       .  S
C533        C536   1.405       .  A
C533        C540   1.403       .  A
C536        C537   1.401       .  A
C536       F1187   1.358       .  S
C537        C538   1.413       .  A
C537       F1189   1.357       .  S
C538        C539   1.414       .  A
C539        C540   1.396       .  A
C539        F542   1.358       .  S
C540        F544   1.358       .  S
F541       C1182   1.358       .  S
F543       C1183   1.357       .  S
C547        C548   1.405       .  A
C547        C552   1.402       .  A
C547        F565   1.357       .  S
C548        C553   1.474       .  S
C548        C549   1.401       .  A
C549        C550   1.392       .  A
C549        F554   1.358       .  S
C550        C551   1.410       .  A
C550        F566   1.358       .  S
C551        C552   1.408       .  A
C552        F555   1.358       .  S
C553        C556   1.403       .  A
C553        C560   1.403       .  A
C556        C557   1.400       .  A
C556       F1207   1.358       .  S
C557        C558   1.409       .  A
C557       F1209   1.358       .  S
C558        C559   1.407       .  A
C559        C560   1.397       .  A
C559        F562   1.358       .  S
C560        F564   1.358       .  S
F561       C1202   1.358   1_545  S
F563       C1203   1.358   1_545  S
C567        C568   1.405       .  A
C567        C572   1.402       .  A
C567        F585   1.358       .  S
C568        C573   1.477       .  S
C568        C569   1.402       .  A
C569        C570   1.391       .  A
C569        F574   1.359       .  S
C570        C571   1.411       .  A
C570        F586   1.358       .  S
C571        C572   1.409       .  A
C572        F575   1.357       .  S
C573        C576   1.404   1_556  A
C573        C580   1.406       .  A
C577        C578   1.408       .  A
C577        F583   1.358       .  S
C579        C580   1.396       .  A
C579        F582   1.358       .  S
C580        F584   1.358       .  S
C587        C588   1.400       .  A
C587        C592   1.398       .  A
C587        F605   1.358       .  S
C588        C593   1.474       .  S
C588        C589   1.401       .  A
C589        C590   1.399       .  A
C589        F594   1.358       .  S
C590        C591   1.413       .  A
C590        F606   1.357       .  S
C591        C592   1.416       .  A
C592        F595   1.358       .  S
C593        C596   1.401       .  A
C593        C600   1.402       .  A
C596        C597   1.397       .  A
C596        F601   1.358       .  S
C597        C598   1.413   1_556  A
C597        F603   1.358       .  S
C599        F602   1.357       .  S
C600        F604   1.357   1_556  S
C607        C608   1.408       .  A
C607        C612   1.401       .  A
C607        F625   1.357       .  S
C608        C613   1.482       .  S
C608        C609   1.404       .  A
C609        C610   1.392       .  A
C609        F614   1.358       .  S
C610        C611   1.410       .  A
C610        F626   1.359       .  S
C611        C612   1.407       .  A
C612        F615   1.358       .  S
C613        C616   1.407       .  A
C613        C620   1.406       .  A
C616        C617   1.396       .  A
C616        F621   1.358       .  S
C617        C618   1.406       .  A
C617        F623   1.358       .  S
C618        C619   1.407       .  A
C619        C620   1.399       .  A
C619        F622   1.358       .  S
C620        F624   1.358       .  S
C627        C628   1.400       .  A
C627        C632   1.396       .  A
C627        F645   1.358       .  S
C628        C633   1.470       .  S
C628        C629   1.400       .  A
C629        C630   1.398       .  A
C629        F634   1.358       .  S
C630        C631   1.414       .  A
C630        F646   1.358       .  S
C631        C632   1.413       .  A
C632        F635   1.358       .  S
C633        C636   1.401       .  A
C633        C640   1.398       .  A
C636        C637   1.402       .  A
C636        F641   1.358       .  S
C637        C638   1.414       .  A
C637        F643   1.357       .  S
C638        C639   1.415       .  A
C639        C640   1.393       .  A
C639        F642   1.358       .  S
C640        F644   1.359       .  S
C647        N648   1.361       .  A
C647        N652   1.358       .  A
C647        C961   1.484       .  S
N648        C649   1.358       .  A
C649        N650   1.357       .  A
C649        C655   1.465       .  S
N650        C651   1.354       .  A
C651        N652   1.354       .  A
C651        C941   1.473       .  S
C653        N654   1.362       .  A
C653        N658   1.358       .  A
C653       C1244   1.493       .  S
N654        C655   1.361       .  A
C655        N656   1.356       .  A
N656        C657   1.353       .  A
C657        N658   1.355       .  A
C657        C901   1.473       .  S
C659        N660   1.361       .  A
C659        N664   1.358       .  A
C659        C854   1.485       .  S
N660        C661   1.361       .  A
C661        N662   1.358       .  A
C661        C669   1.469       .  S
N662        C663   1.356       .  A
C663        N664   1.356       .  A
C663        C881   1.479       .  S
C665        N666   1.359       .  A
C665        N670   1.361       .  A
C665       C1144   1.489       .  S
N666        C667   1.358       .  A
C667        N668   1.357       .  A
C667        C841   1.487       .  S
N668        C669   1.358       .  A
C669        N670   1.359       .  A
C671        N672   1.362       .  A
C671        N676   1.361       .  A
C671        C794   1.492       .  S
N672        C673   1.361       .  A
C673        N674   1.359       .  A
C673        C679   1.473       .  S
N674        C675   1.358       .  A
C675        N676   1.360       .  A
C675        C774   1.485       .  S
C677        N678   1.362       .  A
C677        N682   1.357       .  A
C677       C1077   1.487       .  S
N678        C679   1.361       .  A
C679        N680   1.360       .  A
N680        C681   1.357       .  A
C681        N682   1.354       .  A
C681        C734   1.478       .  S
O683       Mn709   2.087       .  S
O683       C2002   1.271   1_455  A
C684        C954   1.484       .  S
C684        O717   1.270       .  A
C684        O714   1.271       .  A
O685       Mn692   2.164       .  S
O685       Mn703   2.123       .  S
O685       Mn707   2.166       .  S
O685      Mn2001   2.116       .  S
O686       Mn720   2.078       .  S
O686        C696   1.268       .  A
O687       Mn703   2.084       .  S
O687        C710   1.270       .  A
O688       Mn707   2.096       .  S
O688        C715   1.251       .  A
O689       Mn709   1.952       .  S
O689        C705   1.217       .  S
C690        C741   1.477       .  S
C690        O693   1.252       .  A
C690        O716   1.214       .  S
O691       Mn692   2.165       .  S
O691       Mn725   2.118       .  S
O691       Mn707   2.165       .  S
Mn692       O697   2.099       .  S
Mn692      O2016   2.101       .  S
Mn692      O1344   2.162   1_565  S
O694       Mn701   2.108       .  S
O694        C696   1.274       .  A
C695        C781   1.488       .  S
C695        O721   1.256       .  A
C695        O708   1.219       .  S
C696        C914   1.493       .  S
O697        C722   1.252       .  A
O698      Mn1338   2.162   1_455  S
O698       Mn701   2.118       .  S
O698       Mn720   2.122       .  S
O698      Mn1353   2.165   1_455  S
O699       Mn703   1.953       .  S
O699       Mn725   1.963       .  S
O699        C722   1.216       .  S
C700        C814   1.495       .  S
C700        O702   1.273       .  A
Mn701       O714   2.084       .  S
Mn701      O2008   1.950   1_455  S
Mn701      O2000   1.971   1_455  S
O702       Mn725   2.104       .  S
Mn703       O719   2.119       .  S
Mn703       O713   1.964       .  S
O704       Mn709   2.087       .  S
O704       C1998   1.271   1_455  A
C705        C834   1.482       .  S
C705        O723   1.251       .  A
C706        C801   1.499       .  S
C706       O1996   1.271       .  A
C706        O719   1.276       .  A
Mn707      O2015   2.105       .  S
Mn707      O1344   2.163   1_565  S
O708      Mn1993   1.972       .  S
O708       Mn711   1.963       .  S
Mn709      O1977   2.116   1_455  S
Mn709       O727   1.959       .  S
C710        C761   1.486       .  S
C710       O1975   1.270       .  A
Mn711       O718   2.099       .  S
Mn711       O726   2.096       .  S
Mn711       O716   1.953       .  S
C712        C861   1.491       .  S
C712        O728   1.270       .  A
O713       Mn725   1.951       .  S
O713        C715   1.217       .  S
C715        C894   1.477       .  S
O716      Mn1993   1.950       .  S
O717       Mn720   2.083       .  S
C722        C934   1.477       .  S
O723      Mn1999   2.102   1_455  S
O724      Mn1984   2.104   1_455  S
O724        C729   1.252       .  A
Mn725       O728   2.084       .  S
O727        C729   1.217       .  S
C729        C874   1.480       .  S
C730        C731   1.404       .  A
C730        C735   1.398       .  A
C730        F748   1.358       .  S
C731        C736   1.475       .  S
C731        C732   1.402       .  A
C732       C1056   1.398       .  A
C732       F1060   1.358       .  S
C733       C1055   1.397   1_554  A
C733        C734   1.407       .  A
C733        F749   1.357       .  S
C734       C1058   1.409   1_554  A
C735       C1057   1.408       .  A
C735        F738   1.358       .  S
C736       C2031   1.401       .  A
C736        C743   1.405       .  A
F737       C1055   1.358   1_554  S
C739       C2028   1.401       .  A
C739        C740   1.393       .  A
C739        F744   1.358   1_655  S
C740       C2033   1.411       .  A
C740        F746   1.359   1_655  S
C741       C2032   1.411       .  A
C741        C742   1.407       .  A
C742        C743   1.401       .  A
C742        F745   1.357       .  S
C743        F747   1.357       .  S
C750        C751   1.403       .  A
C750       C1078   1.400       .  A
C750        F768   1.358       .  S
C751        C756   1.475       .  S
C751        C752   1.403       .  A
C752        C753   1.394       .  A
C752       F2049   1.359       .  S
C753        C754   1.410       .  A
C753       F2061   1.358       .  S
C754       C1000   1.482       .  S
C754       C1078   1.411       .  A
C755       C1073   1.402   1_554  A
C755       C1077   1.412       .  A
C755        F758   1.357       .  S
C756        C759   1.402       .  A
C756        C763   1.402       .  A
F757       C2044   1.359       .  S
C759        C760   1.395       .  A
C759        F764   1.358       .  S
C760        C761   1.412       .  A
C760        F766   1.358       .  S
C761        C762   1.414       .  A
C762        C763   1.397       .  A
C762        F765   1.358       .  S
C763        F767   1.358       .  S
F769       C2045   1.358       .  S
C770        C771   1.404       .  A
C770        C775   1.403       .  A
C770        F788   1.358       .  S
C771        C776   1.484       .  S
C771        C772   1.405       .  A
C772        C773   1.401       .  A
C772        F777   1.358       .  S
C773        C774   1.407       .  A
C773        F789   1.358       .  S
C774        C775   1.410       .  A
C775        F778   1.358       .  S
C776       C2071   1.406       .  A
C776        C783   1.402       .  A
C779       C2068   1.406       .  A
C779        C780   1.406       .  A
C779        F784   1.357   1_655  S
C780       C2073   1.409       .  A
C780        F786   1.357   1_655  S
C781       C2072   1.409       .  A
C781        C782   1.412       .  A
C782        C783   1.398       .  A
C782        F785   1.358       .  S
C783        F787   1.358       .  S
C790       C2083   1.404   1_455  A
C790        C795   1.400       .  A
C790        F808   1.358       .  S
C791        C796   1.486       .  S
C791       C2082   1.404       .  A
C791        C792   1.404       .  A
C792        C793   1.405       .  A
C792        F797   1.358       .  S
C793        C794   1.413       .  A
C793        F809   1.358       .  S
C794       C2087   1.411       .  A
C795       C2086   1.410   1_455  A
C795        F798   1.358       .  S
C796       C2091   1.402       .  A
C796        C803   1.405       .  A
C799       C2088   1.402   1_455  A
C799        C800   1.400       .  A
C799        F804   1.358       .  S
C800       C2093   1.416   1_455  A
C800        F806   1.357       .  S
C801       C2092   1.416       .  A
C801        C802   1.413       .  A
C802        C803   1.405       .  A
C802        F805   1.357       .  S
C803        F807   1.358       .  S
C810        C811   1.402   1_545  A
C810        C815   1.398       .  A
C810        F828   1.358       .  S
C811        C816   1.481       .  S
C811        C812   1.403       .  A
C812        C813   1.401       .  A
C812        F817   1.358       .  S
C813        C814   1.414       .  A
C813        F829   1.357       .  S
C814        C815   1.415   1_565  A
C815        F818   1.358       .  S
C816        C819   1.402       .  A
C819        C820   1.396       .  A
C819        F824   1.358   1_565  S
C820        C821   1.413       .  A
C820        F826   1.357   1_565  S
C821        C988   1.491       .  S
C822       C1146   1.402   1_554  A
C822        F825   1.358       .  S
C823       C1145   1.403       .  A
C823        F827   1.358       .  S
C830        C831   1.404       .  A
C830        C835   1.393       .  A
C830        F848   1.358       .  S
C831        C836   1.484       .  S
C831        C832   1.407       .  A
C832        C833   1.402       .  A
C832        F837   1.357       .  S
C833        C834   1.409       .  A
C833        F849   1.358       .  S
C834        C835   1.410       .  A
C835        F838   1.359       .  S
C836        C843   1.406       .  A
C839        C840   1.397       .  A
C839        F844   1.358       .  S
C840        F846   1.357       .  S
C841        C842   1.411       .  A
C842       C1166   1.400       .  A
C842        F845   1.358       .  S
C843       C1165   1.400       .  A
C843        F847   1.358       .  S
C850        C851   1.406       .  A
C850        C855   1.401       .  A
C850        F868   1.358       .  S
C851        C856   1.483       .  S
C851        C852   1.405       .  A
C852        C853   1.396       .  A
C852        F857   1.358       .  S
C853        C854   1.410       .  A
C853        F869   1.358       .  S
C854        C855   1.410       .  A
C855        F858   1.357       .  S
C856        C859   1.405       .  A
C856        C863   1.403       .  A
C859        C860   1.400   1_565  A
C860        C861   1.413   1_545  A
C861        C862   1.414       .  A
C862        C863   1.396       .  A
C862        F865   1.358       .  S
C863        F867   1.358       .  S
C870        C871   1.405       .  A
C870        C875   1.402       .  A
C870        F888   1.357       .  S
C871        C876   1.477       .  S
C871        C872   1.401       .  A
C872        C873   1.393       .  A
C872        F877   1.358       .  S
C873        C874   1.411       .  A
C873        F889   1.359       .  S
C874        C875   1.408       .  A
C875        F878   1.358       .  S
C876        C879   1.403       .  A
C876        C883   1.404       .  A
C879        C880   1.400       .  A
C880        C881   1.409       .  A
C881        C882   1.407       .  A
C882        C883   1.396       .  A
C882        F885   1.358       .  S
C883        F887   1.358       .  S
C890        C891   1.404       .  A
C890        C895   1.400       .  A
C890        F908   1.358       .  S
C891        C896   1.473       .  S
C891        C892   1.401       .  A
C892        C893   1.390       .  A
C892        F897   1.359       .  S
C893        C894   1.410       .  A
C893        F909   1.359       .  S
C894        C895   1.409       .  A
C895        F898   1.357       .  S
C896        C899   1.403       .  A
C896        C903   1.405       .  A
C899       C1223   1.398       .  A
C899       F1227   1.358       .  S
C900       C1222   1.400       .  A
C900        C901   1.408       .  A
C900        F906   1.358       .  S
C901       C1225   1.405   1_554  A
C902       C1224   1.404       .  A
C902        C903   1.393       .  A
C902        F905   1.358       .  S
C903        F907   1.358       .  S
F904       C1222   1.358       .  S
C910        C911   1.400       .  A
C910        C915   1.399       .  A
C910        F928   1.358       .  S
C911        C916   1.475       .  S
C911        C912   1.401       .  A
C912        C913   1.400       .  A
C912        F917   1.358       .  S
C913        C914   1.413       .  A
C913        F929   1.357       .  S
C914        C915   1.417       .  A
C915        F918   1.358       .  S
C916        C919   1.399       .  A
C916        C923   1.401       .  A
C919        C920   1.396       .  A
C919        F924   1.358       .  S
C920        C921   1.416       .  A
C920        F926   1.358       .  S
C921        C976   1.493       .  S
C921       C1245   1.413       .  A
C922       C1244   1.414       .  A
C922       C1246   1.402   1_554  A
C922        F925   1.357       .  S
C923       C1245   1.402       .  A
C923        F927   1.357       .  S
C930        C931   1.407       .  A
C930        C935   1.400       .  A
C930        F948   1.358       .  S
C931        C936   1.479       .  S
C931        C932   1.403       .  A
C932        C933   1.391       .  A
C932        F937   1.358       .  S
C933        C934   1.410       .  A
C933        F949   1.359       .  S
C934        C935   1.408       .  A
C935        F938   1.358       .  S
C936        C939   1.407       .  A
C936        C943   1.405       .  A
C939        C940   1.396       .  A
C939        F944   1.358       .  S
C940        C941   1.406       .  A
C940        F946   1.358       .  S
C941        C942   1.406       .  A
C942        C943   1.398       .  A
C942        F945   1.358       .  S
C943        F947   1.358       .  S
C950        C951   1.400       .  A
C950        C955   1.395       .  A
C950        F968   1.358       .  S
C951        C956   1.468       .  S
C951        C952   1.399       .  A
C952        C953   1.396       .  A
C952        F957   1.358       .  S
C953        C954   1.413       .  A
C953        F969   1.358       .  S
C954        C955   1.413       .  A
C955        F958   1.358       .  S
C956        C959   1.400       .  A
C956        C963   1.399       .  A
C959        C960   1.399       .  A
C959        F964   1.358       .  S
C960        C961   1.412       .  A
C960        F966   1.357       .  S
C961        C962   1.413       .  A
C962        C963   1.393       .  A
C962        F965   1.358       .  S
C963        F967   1.359       .  S
C970        N971   1.361       .  A
C970        N975   1.359       .  A
C970       C1284   1.486       .  S
N971        C972   1.358       .  A
C972        N973   1.357       .  A
C972        C978   1.464       .  S
N973        C974   1.352       .  A
C974        N975   1.354       .  A
C974       C1264   1.474       .  S
C976        N977   1.364       .  A
C976        N981   1.358       .  A
N977        C978   1.362       .  A
C978        N979   1.354       .  A
N979        C980   1.350       .  A
C980        N981   1.354       .  A
C980       C1224   1.470       .  S
C982        N983   1.362       .  A
C982        N987   1.358       .  A
C982       C1177   1.486       .  S
N983        C984   1.361       .  A
C984        N985   1.358       .  A
C984        C992   1.469       .  S
N985        C986   1.355       .  A
C986        N987   1.356       .  A
C986       C1204   1.480       .  S
C988        N989   1.359       .  A
C988        N993   1.363       .  A
N989        C990   1.356       .  A
C990        N991   1.355       .  A
C990       C1164   1.482       .  S
N991        C992   1.358       .  A
C992        N993   1.361       .  A
C994        N995   1.361       .  A
C994        N999   1.361       .  A
C994       C1117   1.490       .  S
N995        C996   1.361       .  A
C996        N997   1.357       .  A
C996       C1002   1.468       .  S
N997        C998   1.356       .  A
C998        N999   1.360       .  A
C998       C1097   1.477       .  S
C1000      N1001   1.359       .  A
C1000      N1005   1.358       .  A
N1001      C1002   1.357       .  A
C1002      N1003   1.359       .  A
N1003      C1004   1.357       .  A
C1004      N1005   1.356       .  A
C1004      C1057   1.477       .  S
O1006     Mn1032   2.092       .  S
O1006      C2325   1.272   1_455  A
C1007      C1277   1.482       .  S
C1007      O1040   1.269       .  A
C1007      O1037   1.271       .  A
O1008     Mn1015   2.165       .  S
O1008     Mn1026   2.124       .  S
O1008     Mn1030   2.171       .  S
O1008     Mn2324   2.116       .  S
O1009     Mn1043   2.077       .  S
O1009      C1019   1.268       .  A
O1010     Mn1026   2.079       .  S
O1010      C1033   1.268       .  A
O1011     Mn1030   2.102       .  S
O1011      C1038   1.252       .  A
O1012     Mn1032   1.957       .  S
O1012      C1028   1.218       .  S
C1013      C1064   1.476       .  S
C1013      O1016   1.252       .  A
C1013      O1039   1.214       .  S
O1014     Mn1015   2.165       .  S
O1014     Mn1048   2.118       .  S
O1014     Mn1030   2.162       .  S
Mn1015     O1020   2.100       .  S
Mn1015     O2339   2.105       .  S
Mn1015     O1667   2.163   1_565  S
O1017     Mn1024   2.109       .  S
O1017      C1019   1.274       .  A
C1018      C1104   1.484       .  S
C1018      O1044   1.254       .  A
C1018      O1031   1.219       .  S
C1019      C1237   1.493       .  S
O1020      C1045   1.252       .  A
O1021     Mn1661   2.165   1_455  S
O1021     Mn1024   2.119       .  S
O1021     Mn1043   2.118       .  S
O1021     Mn1676   2.164   1_455  S
O1022     Mn1026   1.952       .  S
O1022     Mn1048   1.963       .  S
O1022      C1045   1.217       .  S
C1023      C1137   1.491       .  S
C1023      O1025   1.273       .  A
Mn1024     O1037   2.088       .  S
Mn1024     O2331   1.948   1_455  S
Mn1024     O2323   1.969   1_455  S
O1025     Mn1048   2.097       .  S
Mn1026     O1042   2.112       .  S
Mn1026     O1036   1.959       .  S
O1027     Mn1032   2.094       .  S
O1027      C2321   1.272   1_455  A
C1028      C1157   1.480       .  S
C1028      O1046   1.252       .  A
C1029      C1124   1.498       .  S
C1029      O2319   1.272       .  A
C1029      O1042   1.275       .  A
Mn1030     O2338   2.101       .  S
Mn1030     O1667   2.165   1_565  S
O1031     Mn2316   1.971       .  S
O1031     Mn1034   1.962       .  S
Mn1032     O2300   2.116   1_455  S
Mn1032     O1050   1.962       .  S
C1033      C1084   1.489       .  S
C1033      O2298   1.272       .  A
Mn1034     O1041   2.099       .  S
Mn1034     O1049   2.092       .  S
Mn1034     O1039   1.952       .  S
C1035      C1184   1.489       .  S
C1035      O1051   1.269       .  A
O1036     Mn1048   1.952       .  S
O1036      C1038   1.218       .  S
C1038      C1217   1.482       .  S
O1039     Mn2316   1.948       .  S
O1040     Mn1043   2.079       .  S
C1045      C1257   1.479       .  S
O1046     Mn2322   2.102   1_455  S
O1047     Mn2307   2.103   1_455  S
O1047      C1052   1.252       .  A
Mn1048     O1051   2.079       .  S
O1050      C1052   1.217       .  S
C1052      C1197   1.478       .  S
C1053      C1054   1.404       .  A
C1053      C1058   1.397       .  A
C1053      F1071   1.359       .  S
C1054      C1059   1.475       .  S
C1054      C1055   1.403       .  A
C1056      C1057   1.407       .  A
C1056      F1072   1.357       .  S
C1058      F1061   1.358       .  S
C1059      C2354   1.401       .  A
C1059      C1066   1.405       .  A
C1062      C2351   1.401       .  A
C1062      C1063   1.392       .  A
C1062      F1067   1.358   1_655  S
C1063      C2356   1.411       .  A
C1063      F1069   1.359   1_655  S
C1064      C2355   1.411       .  A
C1064      C1065   1.406       .  A
C1065      C1066   1.400       .  A
C1065      F1068   1.357       .  S
C1066      F1070   1.357       .  S
C1073      C1074   1.402       .  A
C1073      F1091   1.357   1_556  S
C1074      C1079   1.472       .  S
C1074      C1075   1.400       .  A
C1075      C1076   1.394       .  A
C1075      F2372   1.359       .  S
C1076      C1077   1.413   1_556  A
C1076      F2384   1.358       .  S
C1078      F1081   1.358       .  S
C1079      C1082   1.401       .  A
C1079      C1086   1.400       .  A
F1080      C2367   1.359       .  S
C1082      C1083   1.396       .  A
C1082      F1087   1.358       .  S
C1083      C1084   1.412       .  A
C1083      F1089   1.357       .  S
C1084      C1085   1.416       .  A
C1085      C1086   1.398       .  A
C1085      F1088   1.358       .  S
C1086      F1090   1.358       .  S
F1092      C2368   1.358       .  S
C1093      C1094   1.404       .  A
C1093      C1098   1.401       .  A
C1093      F1111   1.358       .  S
C1094      C1099   1.478       .  S
C1094      C1095   1.405       .  A
C1095      C1096   1.398       .  A
C1095      F1100   1.358       .  S
C1096      C1097   1.405       .  A
C1096      F1112   1.358       .  S
C1097      C1098   1.409       .  A
C1098      F1101   1.358       .  S
C1099      C2394   1.405       .  A
C1099      C1106   1.401       .  A
C1102      C2391   1.405       .  A
C1102      C1103   1.404       .  A
C1102      F1107   1.357   1_655  S
C1103      C2396   1.409       .  A
C1103      F1109   1.357   1_655  S
C1104      C2395   1.409       .  A
C1104      C1105   1.411       .  A
C1105      C1106   1.395       .  A
C1105      F1108   1.358       .  S
C1106      F1110   1.358       .  S
C1113      C2406   1.404   1_455  A
C1113      C1118   1.399       .  A
C1113      F1131   1.358       .  S
C1114      C1119   1.485       .  S
C1114      C2405   1.404       .  A
C1114      C1115   1.404       .  A
C1115      C1116   1.404       .  A
C1115      F1120   1.358       .  S
C1116      C1117   1.412       .  A
C1116      F1132   1.358       .  S
C1117      C2410   1.410       .  A
C1118      C2409   1.410   1_455  A
C1118      F1121   1.358       .  S
C1119      C2414   1.402       .  A
C1119      C1126   1.405       .  A
C1122      C2411   1.402   1_455  A
C1122      C1123   1.400       .  A
C1122      F1127   1.358       .  S
C1123      C2416   1.414   1_455  A
C1123      F1129   1.356       .  S
C1124      C2415   1.415       .  A
C1124      C1125   1.413       .  A
C1125      C1126   1.404       .  A
C1125      F1128   1.358       .  S
C1126      F1130   1.358       .  S
C1133      C1134   1.402   1_545  A
C1133      C1138   1.397       .  A
C1133      F1151   1.358       .  S
C1134      C1139   1.478       .  S
C1134      C1135   1.403       .  A
C1135      C1136   1.400       .  A
C1135      F1140   1.358       .  S
C1136      C1137   1.413       .  A
C1136      F1152   1.358       .  S
C1137      C1138   1.415   1_565  A
C1138      F1141   1.358       .  S
C1139      C1142   1.402       .  A
C1142      C1143   1.396       .  A
C1142      F1147   1.358   1_565  S
C1143      C1144   1.412   1_556  A
C1143      F1149   1.357   1_565  S
C1145      F1148   1.358       .  S
C1146      F1150   1.358   1_556  S
C1153      C1154   1.405       .  A
C1153      C1158   1.394       .  A
C1153      F1171   1.358       .  S
C1154      C1159   1.485       .  S
C1154      C1155   1.408       .  A
C1155      C1156   1.402       .  A
C1155      F1160   1.358   1_565  S
C1156      C1157   1.408       .  A
C1156      F1172   1.358       .  S
C1157      C1158   1.409       .  A
C1158      F1161   1.359       .  S
C1159      C1166   1.405   1_556  A
C1162      C1163   1.396       .  A
C1162      F1167   1.359       .  S
C1163      F1169   1.357       .  S
C1164      C1165   1.410       .  A
C1165      F1168   1.358       .  S
C1166      F1170   1.358       .  S
C1173      C1174   1.404       .  A
C1173      C1178   1.401       .  A
C1173      F1191   1.358       .  S
C1174      C1179   1.479       .  S
C1174      C1175   1.403       .  A
C1175      C1176   1.395       .  A
C1175      F1180   1.359       .  S
C1176      C1177   1.411       .  A
C1176      F1192   1.358       .  S
C1177      C1178   1.411       .  A
C1178      F1181   1.357       .  S
C1179      C1182   1.404   1_565  A
C1179      C1186   1.402       .  A
C1182      C1183   1.399       .  A
C1183      C1184   1.413   1_545  A
C1184      C1185   1.414       .  A
C1185      C1186   1.395       .  A
C1185      F1188   1.358       .  S
C1186      F1190   1.358       .  S
C1193      C1194   1.405       .  A
C1193      C1198   1.402       .  A
C1193      F1211   1.357       .  S
C1194      C1199   1.476       .  S
C1194      C1195   1.401       .  A
C1195      C1196   1.392       .  A
C1195      F1200   1.358   1_565  S
C1196      C1197   1.410       .  A
C1196      F1212   1.358   1_565  S
C1197      C1198   1.408       .  A
C1198      F1201   1.358       .  S
C1199      C1202   1.402       .  A
C1199      C1206   1.404       .  A
C1202      C1203   1.399       .  A
C1203      C1204   1.410       .  A
C1204      C1205   1.408       .  A
C1205      C1206   1.396       .  A
C1205      F1208   1.358       .  S
C1206      F1210   1.358       .  S
C1213      C1214   1.405       .  A
C1213      C1218   1.402       .  A
C1213      F1231   1.358       .  S
C1214      C1219   1.477       .  S
C1214      C1215   1.402       .  A
C1215      C1216   1.393       .  A
C1215      F1220   1.359       .  S
C1216      C1217   1.411       .  A
C1216      F1232   1.358       .  S
C1217      C1218   1.409       .  A
C1218      F1221   1.357       .  S
C1219      C1222   1.405   1_556  A
C1219      C1226   1.405       .  A
C1223      C1224   1.408       .  A
C1223      F1229   1.358       .  S
C1225      C1226   1.395       .  A
C1225      F1228   1.358       .  S
C1226      F1230   1.358       .  S
C1233      C1234   1.400       .  A
C1233      C1238   1.398       .  A
C1233      F1251   1.358       .  S
C1234      C1239   1.475       .  S
C1234      C1235   1.401       .  A
C1235      C1236   1.400       .  A
C1235      F1240   1.358       .  S
C1236      C1237   1.413       .  A
C1236      F1252   1.357       .  S
C1237      C1238   1.417       .  A
C1238      F1241   1.358       .  S
C1239      C1242   1.399       .  A
C1239      C1246   1.401       .  A
C1242      C1243   1.396       .  A
C1242      F1247   1.358       .  S
C1243      C1244   1.416   1_556  A
C1243      F1249   1.358       .  S
C1245      F1248   1.357       .  S
C1246      F1250   1.357   1_556  S
C1253      C1254   1.407       .  A
C1253      C1258   1.401       .  A
C1253      F1271   1.358       .  S
C1254      C1259   1.480       .  S
C1254      C1255   1.404       .  A
C1255      C1256   1.392       .  A
C1255      F1260   1.358       .  S
C1256      C1257   1.410       .  A
C1256      F1272   1.359       .  S
C1257      C1258   1.408       .  A
C1258      F1261   1.358       .  S
C1259      C1262   1.407       .  A
C1259      C1266   1.405       .  A
C1262      C1263   1.396       .  A
C1262      F1267   1.358       .  S
C1263      C1264   1.405       .  A
C1263      F1269   1.358       .  S
C1264      C1265   1.407       .  A
C1265      C1266   1.398       .  A
C1265      F1268   1.358       .  S
C1266      F1270   1.358       .  S
C1273      C1274   1.400       .  A
C1273      C1278   1.394       .  A
C1273      F1291   1.358       .  S
C1274      C1279   1.467       .  S
C1274      C1275   1.400       .  A
C1275      C1276   1.397       .  A
C1275      F1280   1.358       .  S
C1276      C1277   1.412       .  A
C1276      F1292   1.357       .  S
C1277      C1278   1.412       .  A
C1278      F1281   1.358       .  S
C1279      C1282   1.400       .  A
C1279      C1286   1.398       .  A
C1282      C1283   1.400       .  A
C1282      F1287   1.358       .  S
C1283      C1284   1.414       .  A
C1283      F1289   1.357       .  S
C1284      C1285   1.414       .  A
C1285      C1286   1.392       .  A
C1285      F1288   1.358       .  S
C1286      F1290   1.359       .  S
C1293      N1294   1.363       .  A
C1293      N1298   1.357       .  A
C1293      C1607   1.490       .  S
N1294      C1295   1.361       .  A
C1295      N1296   1.359       .  A
C1295      C1301   1.467       .  S
N1296      C1297   1.353       .  A
C1297      N1298   1.352       .  A
C1297      C1587   1.476       .  S
C1299      N1300   1.364       .  A
C1299      N1304   1.359       .  A
C1299      C1890   1.492       .  S
N1300      C1301   1.361       .  A
C1301      N1302   1.355       .  A
N1302      C1303   1.352       .  A
C1303      N1304   1.356       .  A
C1303      C1547   1.472       .  S
C1305      N1306   1.362       .  A
C1305      N1310   1.357       .  A
C1305      C1500   1.485       .  S
N1306      C1307   1.362       .  A
C1307      N1308   1.359       .  A
C1307      C1315   1.469       .  S
N1308      C1309   1.356       .  A
C1309      N1310   1.355       .  A
C1309      C1527   1.477       .  S
C1311      N1312   1.359       .  A
C1311      N1316   1.361       .  A
C1311      C1790   1.489       .  S
N1312      C1313   1.357       .  A
C1313      N1314   1.357       .  A
C1313      C1487   1.486       .  S
N1314      C1315   1.359       .  A
C1315      N1316   1.360       .  A
C1317      N1318   1.361       .  A
C1317      N1322   1.359       .  A
C1317      C1440   1.489       .  S
N1318      C1319   1.361       .  A
C1319      N1320   1.358       .  A
C1319      C1325   1.470       .  S
N1320      C1321   1.357       .  A
C1321      N1322   1.359       .  A
C1321      C1420   1.482       .  S
C1323      N1324   1.361       .  A
C1323      N1328   1.359       .  A
C1323      C1723   1.486       .  S
N1324      C1325   1.359       .  A
C1325      N1326   1.359       .  A
N1326      C1327   1.356       .  A
C1327      N1328   1.355       .  A
C1327      C1380   1.478       .  S
O1329     Mn1355   2.094       .  S
C1330      C1600   1.484       .  S
C1330      O1363   1.270       .  A
C1330      O1360   1.271       .  A
O1331     Mn1338   2.170       .  S
O1331     Mn1349   2.123       .  S
O1331     Mn1353   2.169       .  S
O1332     Mn1366   2.081       .  S
O1332      C1342   1.269       .  A
O1333     Mn1349   2.078       .  S
O1333      C1356   1.268       .  A
O1334     Mn1353   2.099       .  S
O1334      C1361   1.252       .  A
O1335     Mn2012   1.947       .  S
O1335     Mn1355   1.949       .  S
O1335      C1351   1.215       .  S
C1336      C1387   1.476       .  S
C1336      O1339   1.252       .  A
C1336      O1362   1.214       .  S
O1337     Mn2003   2.122       .  S
O1337     Mn1338   2.166       .  S
O1337     Mn1371   2.118       .  S
O1337     Mn1353   2.163       .  S
Mn1338     O2013   2.120       .  S
Mn1338     O1343   2.109       .  S
O1339     Mn1999   2.108   1_545  S
O1340     Mn1347   2.101       .  S
O1340      C1342   1.273       .  A
C1341      C1427   1.483       .  S
C1341      O1367   1.254       .  A
C1341      O1354   1.218       .  S
C1342      C1560   1.491       .  S
O1343      C1368   1.253       .  A
O1344     Mn1347   2.119       .  S
O1344     Mn1366   2.120       .  S
O1345     Mn1349   1.951       .  S
O1345     Mn1371   1.962       .  S
O1345      C1368   1.216       .  S
C1346      C1460   1.492       .  S
C1346      O2018   1.272       .  A
C1346      O1348   1.272       .  A
Mn1347     O1360   2.091       .  S
O1348     Mn1371   2.094       .  S
Mn1349     O1365   2.114       .  S
Mn1349     O1359   1.957       .  S
O1350     Mn1355   2.086       .  S
C1351      C1480   1.481       .  S
C1351      O1369   1.251       .  A
C1352      C1447   1.497       .  S
C1352      O1365   1.275       .  A
Mn1353     O1985   2.110       .  S
O1354     Mn1357   1.962       .  S
Mn1355     O1373   1.960       .  S
C1356      C1407   1.488       .  S
Mn1357     O1364   2.098       .  S
Mn1357     O1372   2.092       .  S
Mn1357     O1983   2.121   1_545  S
Mn1357     O1362   1.955       .  S
C1358      C1507   1.491       .  S
C1358      O2010   1.273       .  A
C1358      O1374   1.270       .  A
O1359     Mn1371   1.950       .  S
O1359      C1361   1.218       .  S
C1361      C1540   1.478       .  S
O1363     Mn1366   2.082       .  S
O1364      C2004   1.272   1_545  A
Mn1366     O1981   1.952   1_545  S
Mn1366     O2019   1.951   1_545  S
O1367     Mn1984   2.106   1_545  S
C1368      C1580   1.481       .  S
O1370      C1375   1.253       .  A
Mn1371     O1374   2.080       .  S
O1372      C1992   1.272   1_545  A
O1373     Mn2012   1.952       .  S
O1373      C1375   1.217       .  S
C1375      C1520   1.479       .  S
C1376      C1377   1.403       .  A
C1376      C1381   1.396       .  A
C1376      F1394   1.358       .  S
C1377      C1382   1.474       .  S
C1377      C1378   1.403   1_655  A
C1378      C1702   1.399       .  A
C1378      F1706   1.358       .  S
C1379      C1701   1.397   1_554  A
C1379      C1380   1.408       .  A
C1379      F1395   1.358   1_655  S
C1380      C1704   1.408   1_554  A
C1381      C1703   1.409       .  A
C1381      F1384   1.358       .  S
C1382      C1389   1.405       .  A
F1383      C1701   1.358   1_454  S
C1385      C1386   1.392       .  A
C1385      F1390   1.358       .  S
C1386      F1392   1.359       .  S
C1387      C1388   1.407       .  A
C1388      C1389   1.401       .  A
C1388      F1391   1.357       .  S
C1389      F1393   1.357       .  S
C1396      C1397   1.402       .  A
C1396      C1724   1.401       .  A
C1396      F1414   1.358   1_655  S
C1397      C1402   1.474       .  S
C1397      C1398   1.401       .  A
C1398      C1399   1.392       .  A
C1399      C1400   1.412       .  A
C1400      C1646   1.487       .  S
C1400      C1724   1.414       .  A
C1401      C1719   1.402       .  A
C1401      C1723   1.412       .  A
C1401      F1404   1.357       .  S
C1402      C1405   1.402   1_655  A
C1402      C1409   1.402       .  A
C1405      C1406   1.398       .  A
C1405      F1410   1.358       .  S
C1406      C1407   1.412   1_455  A
C1406      F1412   1.357       .  S
C1407      C1408   1.414       .  A
C1408      C1409   1.395       .  A
C1408      F1411   1.358       .  S
C1409      F1413   1.358       .  S
C1416      C1417   1.403       .  A
C1416      C1421   1.402       .  A
C1416      F1434   1.358       .  S
C1417      C1422   1.479       .  S
C1417      C1418   1.404   1_655  A
C1418      C1419   1.398       .  A
C1418      F1423   1.358       .  S
C1419      C1420   1.407   1_455  A
C1419      F1435   1.358       .  S
C1420      C1421   1.410       .  A
C1421      F1424   1.358       .  S
C1422      C1429   1.402       .  A
C1425      C1426   1.403       .  A
C1425      F1430   1.357       .  S
C1426      F1432   1.357       .  S
C1427      C1428   1.411       .  A
C1428      C1429   1.396       .  A
C1428      F1431   1.358       .  S
C1429      F1433   1.358       .  S
C1436      C1441   1.399       .  A
C1436      F1454   1.358       .  S
C1437      C1442   1.485       .  S
C1437      C1438   1.405       .  A
C1438      C1439   1.403       .  A
C1438      F1443   1.358       .  S
C1439      C1440   1.411       .  A
C1439      F1455   1.358       .  S
C1441      F1444   1.358       .  S
C1442      C1449   1.405       .  A
C1445      C1446   1.399       .  A
C1445      F1450   1.358       .  S
C1446      F1452   1.358       .  S
C1447      C1448   1.413       .  A
C1448      C1449   1.404       .  A
C1448      F1451   1.358       .  S
C1449      F1453   1.358       .  S
C1456      C1457   1.402       .  A
C1456      C1461   1.398       .  A
C1456      F1474   1.358       .  S
C1457      C1462   1.477       .  S
C1457      C1458   1.402       .  A
C1458      C1459   1.400       .  A
C1458      F1463   1.358       .  S
C1459      C1460   1.415       .  A
C1459      F1475   1.358       .  S
C1460      C1461   1.414       .  A
C1461      F1464   1.358       .  S
C1462      C1465   1.401       .  A
C1462      C2115   1.402       .  A
C1465      C1466   1.396       .  A
C1465      F1470   1.358       .  S
C1466      C1467   1.412       .  A
C1466      F1472   1.357       .  S
C1467      C1634   1.490       .  S
C1467      C2437   1.413       .  A
C1468      C2436   1.412       .  A
C1468      C1792   1.401   1_554  A
C1468      F1471   1.358       .  S
C1469      C2108   1.403       .  A
C1469      C1791   1.403       .  A
C1469      F1473   1.358       .  S
C1476      C1477   1.403       .  A
C1476      C1481   1.392       .  A
C1476      F1494   1.358       .  S
C1477      C1482   1.480       .  S
C1477      C1478   1.406       .  A
C1478      C1479   1.402       .  A
C1478      F1483   1.357       .  S
C1479      C1480   1.408       .  A
C1479      F1495   1.358       .  S
C1480      C1481   1.411       .  A
C1481      F1484   1.359       .  S
C1482      C2131   1.405       .  A
C1482      C1489   1.404       .  A
C1485      C2128   1.407   1_545  A
C1485      C1486   1.399       .  A
C1485      F1490   1.358       .  S
C1486      C2456   1.408   1_545  A
C1486      F1492   1.358       .  S
C1487      C2455   1.409   1_554  A
C1487      C1488   1.411       .  A
C1488      C1812   1.400       .  A
C1488      F1491   1.358       .  S
C1489      C1811   1.400       .  A
C1489      F1493   1.358       .  S
C1496      C1497   1.405       .  A
C1496      C1501   1.402       .  A
C1496      F1514   1.358       .  S
C1497      C1502   1.481       .  S
C1497      C1498   1.403       .  A
C1498      C1499   1.395       .  A
C1498      F1503   1.358       .  S
C1499      C1500   1.411       .  A
C1499      F1515   1.358       .  S
C1500      C1501   1.410       .  A
C1501      F1504   1.357       .  S
C1502      C1505   1.404       .  A
C1502      C1509   1.403       .  A
C1505      C1506   1.400       .  A
C1505      F2156   1.358       .  S
C1506      C1507   1.413       .  A
C1506      F2158   1.356       .  S
C1507      C1508   1.414       .  A
C1508      C1509   1.396       .  A
C1508      F1511   1.358       .  S
C1509      F1513   1.358       .  S
F1510      C2151   1.358       .  S
F1512      C2152   1.357       .  S
C1516      C1517   1.405       .  A
C1516      C1521   1.402       .  A
C1516      F1534   1.357       .  S
C1517      C1522   1.477       .  S
C1517      C1518   1.402       .  A
C1518      C1519   1.392       .  A
C1518      F1523   1.359       .  S
C1519      C1520   1.411       .  A
C1519      F1535   1.359       .  S
C1520      C1521   1.408       .  A
C1521      F1524   1.357       .  S
C1522      C1525   1.404       .  A
C1522      C1529   1.404       .  A
C1525      C1526   1.400       .  A
C1525      F2176   1.358       .  S
C1526      C1527   1.408       .  A
C1526      F2178   1.358       .  S
C1527      C1528   1.407       .  A
C1528      C1529   1.396       .  A
C1528      F1531   1.358       .  S
C1529      F1533   1.358       .  S
F1530      C2171   1.358   1_545  S
F1532      C2172   1.358   1_545  S
C1536      C1537   1.405       .  A
C1536      C1541   1.401       .  A
C1536      F1554   1.358       .  S
C1537      C1542   1.476       .  S
C1537      C1538   1.402       .  A
C1538      C1539   1.391       .  A
C1538      F1543   1.359       .  S
C1539      C1540   1.409       .  A
C1539      F1555   1.358       .  S
C1540      C1541   1.409       .  A
C1541      F1544   1.358       .  S
C1542      C1545   1.403       .  A
C1542      C1549   1.405       .  A
C1545      C1869   1.398       .  A
C1545      F1873   1.358       .  S
C1546      C1868   1.398       .  A
C1546      C1547   1.408       .  A
C1546      F1552   1.358       .  S
C1547      C1871   1.404   1_554  A
C1548      C1870   1.405       .  A
C1548      C1549   1.395       .  A
C1548      F1551   1.358       .  S
C1549      F1553   1.358       .  S
F1550      C1868   1.358       .  S
C1556      C1557   1.402       .  A
C1556      C1561   1.399       .  A
C1556      F1574   1.358       .  S
C1557      C1562   1.479       .  S
C1557      C1558   1.403       .  A
C1558      C1559   1.398       .  A
C1558      F1563   1.358       .  S
C1559      C1560   1.412       .  A
C1559      F1575   1.357       .  S
C1560      C1561   1.415       .  A
C1561      F1564   1.358       .  S
C1562      C1565   1.402       .  A
C1562      C1569   1.404       .  A
C1565      C1566   1.396       .  A
C1565      F1570   1.358       .  S
C1566      C1567   1.412       .  A
C1566      F1572   1.358       .  S
C1567      C1622   1.487       .  S
C1567      C1891   1.411       .  A
C1568      C1890   1.413       .  A
C1568      C1892   1.401   1_554  A
C1568      F1571   1.357       .  S
C1569      C1891   1.401       .  A
C1569      F1573   1.358       .  S
C1576      C1577   1.407       .  A
C1576      C1581   1.402       .  A
C1576      F1594   1.358       .  S
C1577      C1582   1.482       .  S
C1577      C1578   1.404       .  A
C1578      C1579   1.393       .  A
C1578      F1583   1.358       .  S
C1579      C1580   1.411       .  A
C1579      F1595   1.359       .  S
C1580      C1581   1.407       .  A
C1581      F1584   1.357       .  S
C1582      C1585   1.407       .  A
C1582      C1589   1.406       .  A
C1585      C1586   1.397       .  A
C1585      F1590   1.358       .  S
C1586      C1587   1.407       .  A
C1586      F1592   1.358       .  S
C1587      C1588   1.407       .  A
C1588      C1589   1.399       .  A
C1588      F1591   1.358       .  S
C1589      F1593   1.358       .  S
C1596      C1597   1.400       .  A
C1596      C1601   1.394       .  A
C1596      F1614   1.358       .  S
C1597      C1602   1.471       .  S
C1597      C1598   1.401       .  A
C1598      C1599   1.399       .  A
C1598      F1603   1.358       .  S
C1599      C1600   1.412       .  A
C1599      F1615   1.357       .  S
C1600      C1601   1.412       .  A
C1601      F1604   1.358       .  S
C1602      C1605   1.401       .  A
C1602      C1609   1.398       .  A
C1605      C1606   1.402       .  A
C1605      F1610   1.358       .  S
C1606      C1607   1.414       .  A
C1606      F1612   1.357       .  S
C1607      C1608   1.415       .  A
C1608      C1609   1.392       .  A
C1608      F1611   1.358       .  S
C1609      F1613   1.359       .  S
C1616      N1617   1.362       .  A
C1616      N1621   1.357       .  A
C1616      C1930   1.490       .  S
N1617      C1618   1.361       .  A
C1618      N1619   1.359       .  A
C1618      C1624   1.466       .  S
N1619      C1620   1.353       .  A
C1620      N1621   1.352       .  A
C1620      C1910   1.475       .  S
C1622      N1623   1.363       .  A
C1622      N1627   1.359       .  A
N1623      C1624   1.361       .  A
C1624      N1625   1.355       .  A
N1625      C1626   1.352       .  A
C1626      N1627   1.356       .  A
C1626      C1870   1.474       .  S
C1628      N1629   1.361       .  A
C1628      N1633   1.358       .  A
C1628      C1823   1.485       .  S
N1629      C1630   1.361       .  A
C1630      N1631   1.358       .  A
C1630      C1638   1.467       .  S
N1631      C1632   1.355       .  A
C1632      N1633   1.355       .  A
C1632      C1850   1.478       .  S
C1634      N1635   1.360       .  A
C1634      N1639   1.361       .  A
N1635      C1636   1.357       .  A
C1636      N1637   1.355       .  A
C1636      C1810   1.481       .  S
N1637      C1638   1.357       .  A
C1638      N1639   1.359       .  A
C1640      N1641   1.360       .  A
C1640      N1645   1.359       .  A
C1640      C1763   1.491       .  S
N1641      C1642   1.361       .  A
C1642      N1643   1.357       .  A
C1642      C1648   1.467       .  S
N1643      C1644   1.357       .  A
C1644      N1645   1.358       .  A
C1644      C1743   1.477       .  S
C1646      N1647   1.359       .  A
C1646      N1651   1.358       .  A
N1647      C1648   1.358       .  A
C1648      N1649   1.360       .  A
N1649      C1650   1.357       .  A
C1650      N1651   1.355       .  A
C1650      C1703   1.478       .  S
O1652     Mn1678   2.083       .  S
C1653      C1923   1.482       .  S
C1653      O1686   1.270       .  A
C1653      O1683   1.271       .  A
O1654     Mn1661   2.166       .  S
O1654     Mn1672   2.125       .  S
O1654     Mn1676   2.167       .  S
O1655     Mn1689   2.079       .  S
O1655      C1665   1.269       .  A
O1656     Mn1672   2.093       .  S
O1656      C1679   1.271       .  A
O1657     Mn1676   2.097       .  S
O1657      C1684   1.251       .  A
O1658     Mn2335   1.949       .  S
O1658     Mn1678   1.949       .  S
O1658      C1674   1.217       .  S
C1659      C1710   1.479       .  S
C1659      O1662   1.253       .  A
C1659      O1685   1.214       .  S
O1660     Mn2326   2.122       .  S
O1660     Mn1661   2.163       .  S
O1660     Mn1694   2.118       .  S
O1660     Mn1676   2.161       .  S
Mn1661     O2336   2.111       .  S
Mn1661     O1666   2.104       .  S
O1662     Mn2322   2.115   1_545  S
O1663     Mn1670   2.108       .  S
O1663      C1665   1.274       .  A
C1664      C1750   1.481       .  S
C1664      O1690   1.253       .  A
C1664      O1677   1.218       .  S
C1665      C1883   1.490       .  S
O1666      C1691   1.253       .  A
O1667     Mn1670   2.120       .  S
O1667     Mn1689   2.120       .  S
O1668     Mn1672   1.957       .  S
O1668     Mn1694   1.963       .  S
O1668      C1691   1.217       .  S
C1669      C1783   1.492       .  S
C1669      O2341   1.271       .  A
C1669      O1671   1.272       .  A
Mn1670     O1683   2.087       .  S
O1671     Mn1694   2.094       .  S
Mn1672     O1688   2.119       .  S
Mn1672     O1682   1.962       .  S
O1673     Mn1678   2.083       .  S
C1674      C1803   1.480       .  S
C1674      O1692   1.252       .  A
C1675      C1770   1.497       .  S
C1675      O1688   1.276       .  A
Mn1676     O2308   2.105       .  S
O1677     Mn1680   1.958       .  S
Mn1678     O1696   1.956       .  S
C1679      C1730   1.488       .  S
Mn1680     O1687   2.096       .  S
Mn1680     O1695   2.085       .  S
Mn1680     O2306   2.121   1_545  S
Mn1680     O1685   1.951       .  S
C1681      C1830   1.491       .  S
C1681      O2333   1.272       .  A
C1681      O1697   1.270       .  A
O1682     Mn1694   1.952       .  S
O1682      C1684   1.218       .  S
C1684      C1863   1.480       .  S
O1686     Mn1689   2.084       .  S
O1687      C2327   1.272   1_545  A
Mn1689     O2304   1.953   1_545  S
Mn1689     O2342   1.950   1_545  S
O1690     Mn2307   2.103   1_545  S
C1691      C1903   1.481       .  S
O1693      C1698   1.252       .  A
Mn1694     O1697   2.082       .  S
O1695      C2315   1.270   1_545  A
O1696     Mn2335   1.952       .  S
O1696      C1698   1.217       .  S
C1698      C1843   1.477       .  S
C1699      C1700   1.405       .  A
C1699      C1704   1.399       .  A
C1699      F1717   1.358       .  S
C1700      C1705   1.477       .  S
C1700      C1701   1.403       .  A
C1702      C1703   1.407   1_455  A
C1702      F1718   1.357       .  S
C1704      F1707   1.358       .  S
C1705      C1712   1.406       .  A
C1708      C1709   1.392       .  A
C1708      F1713   1.358       .  S
C1709      F1715   1.359       .  S
C1710      C1711   1.407       .  A
C1711      C1712   1.402       .  A
C1711      F1714   1.357       .  S
C1712      F1716   1.357       .  S
C1719      C1720   1.403   1_554  A
C1719      F1737   1.358       .  S
C1720      C1725   1.478       .  S
C1720      C1721   1.403       .  A
C1721      C1722   1.394       .  A
C1722      C1723   1.411   1_556  A
C1724      F1727   1.358   1_655  S
C1725      C1728   1.402   1_655  A
C1725      C1732   1.403       .  A
C1728      C1729   1.395       .  A
C1728      F1733   1.358       .  S
C1729      C1730   1.412   1_455  A
C1729      F1735   1.358       .  S
C1730      C1731   1.413       .  A
C1731      C1732   1.400       .  A
C1731      F1734   1.358       .  S
C1732      F1736   1.358       .  S
C1739      C1740   1.404       .  A
C1739      C1744   1.401       .  A
C1739      F1757   1.358       .  S
C1740      C1745   1.477       .  S
C1740      C1741   1.404   1_655  A
C1741      C1742   1.397       .  A
C1741      F1746   1.358       .  S
C1742      C1743   1.406   1_455  A
C1742      F1758   1.358       .  S
C1743      C1744   1.408       .  A
C1744      F1747   1.358       .  S
C1745      C1752   1.402       .  A
C1748      C1749   1.404       .  A
C1748      F1753   1.357       .  S
C1749      F1755   1.357       .  S
C1750      C1751   1.411       .  A
C1751      C1752   1.395       .  A
C1751      F1754   1.359       .  S
C1752      F1756   1.358       .  S
C1759      C1764   1.398       .  A
C1759      F1777   1.358       .  S
C1760      C1765   1.487       .  S
C1760      C1761   1.405       .  A
C1761      C1762   1.404       .  A
C1761      F1766   1.358       .  S
C1762      C1763   1.413       .  A
C1762      F1778   1.358       .  S
C1764      F1767   1.358       .  S
C1765      C1772   1.407       .  A
C1768      C1769   1.398       .  A
C1768      F1773   1.358       .  S
C1769      F1775   1.358       .  S
C1770      C1771   1.413       .  A
C1771      C1772   1.406       .  A
C1771      F1774   1.358       .  S
C1772      F1776   1.358       .  S
C1779      C1780   1.403       .  A
C1779      C1784   1.398       .  A
C1779      F1797   1.358       .  S
C1780      C1785   1.479       .  S
C1780      C1781   1.402       .  A
C1781      C1782   1.399       .  A
C1781      F1786   1.358       .  S
C1782      C1783   1.414       .  A
C1782      F1798   1.358       .  S
C1783      C1784   1.414       .  A
C1784      F1787   1.358       .  S
C1785      C1788   1.402       .  A
C1785      C2438   1.404   1_556  A
C1788      C1789   1.395       .  A
C1788      F1793   1.358       .  S
C1789      C1790   1.412   1_556  A
C1789      F1795   1.357       .  S
C1790      C2114   1.413       .  A
C1791      C2113   1.415       .  A
C1791      F1794   1.358       .  S
C1792      C2431   1.403       .  A
C1792      F1796   1.358   1_556  S
C1799      C1800   1.405       .  A
C1799      C1804   1.393       .  A
C1799      F1817   1.358       .  S
C1800      C1805   1.484       .  S
C1800      C1801   1.408       .  A
C1801      C1802   1.402       .  A
C1801      F1806   1.357       .  S
C1802      C1803   1.408       .  A
C1802      F1818   1.358       .  S
C1803      C1804   1.409       .  A
C1804      F1807   1.359       .  S
C1805      C2454   1.406       .  A
C1805      C1812   1.406   1_556  A
C1808      C2451   1.406       .  A
C1808      C1809   1.396   1_565  A
C1808      F1813   1.358   1_565  S
C1809      C2133   1.410   1_546  A
C1809      F1815   1.357       .  S
C1810      C2132   1.408       .  A
C1810      C1811   1.410       .  A
C1811      F1814   1.358       .  S
C1812      F1816   1.358       .  S
C1819      C1820   1.405       .  A
C1819      C1824   1.402       .  A
C1819      F1837   1.358       .  S
C1820      C1825   1.482       .  S
C1820      C1821   1.404       .  A
C1821      C1822   1.394       .  A
C1821      F1826   1.358       .  S
C1822      C1823   1.410       .  A
C1822      F1838   1.358       .  S
C1823      C1824   1.410       .  A
C1824      F1827   1.358       .  S
C1825      C1828   1.405       .  A
C1825      C1832   1.403       .  A
C1828      C1829   1.401       .  A
C1828      F2479   1.358       .  S
C1829      C1830   1.414       .  A
C1829      F2481   1.357       .  S
C1830      C1831   1.413       .  A
C1831      C1832   1.394       .  A
C1831      F1834   1.358       .  S
C1832      F1836   1.358       .  S
F1833      C2474   1.358       .  S
F1835      C2475   1.358       .  S
C1839      C1840   1.405       .  A
C1839      C1844   1.401       .  A
C1839      F1857   1.357       .  S
C1840      C1845   1.475       .  S
C1840      C1841   1.401       .  A
C1841      C1842   1.392       .  A
C1841      F1846   1.358       .  S
C1842      C1843   1.410       .  A
C1842      F1858   1.358       .  S
C1843      C1844   1.408       .  A
C1844      F1847   1.358       .  S
C1845      C1848   1.403       .  A
C1845      C1852   1.404       .  A
C1848      C1849   1.399       .  A
C1848      F2499   1.358       .  S
C1849      C1850   1.409       .  A
C1849      F2501   1.358       .  S
C1850      C1851   1.408       .  A
C1851      C1852   1.396       .  A
C1851      F1854   1.358       .  S
C1852      F1856   1.358       .  S
F1853      C2494   1.358   1_545  S
F1855      C2495   1.358   1_545  S
C1859      C1860   1.405       .  A
C1859      C1864   1.401       .  A
C1859      F1877   1.358       .  S
C1860      C1865   1.477       .  S
C1860      C1861   1.402       .  A
C1861      C1862   1.391       .  A
C1861      F1866   1.359       .  S
C1862      C1863   1.410       .  A
C1862      F1878   1.358       .  S
C1863      C1864   1.410       .  A
C1864      F1867   1.358       .  S
C1865      C1868   1.404   1_556  A
C1865      C1872   1.406       .  A
C1869      C1870   1.409       .  A
C1869      F1875   1.358       .  S
C1871      C1872   1.395       .  A
C1871      F1874   1.358       .  S
C1872      F1876   1.358       .  S
C1879      C1880   1.400       .  A
C1879      C1884   1.397       .  A
C1879      F1897   1.358       .  S
C1880      C1885   1.475       .  S
C1880      C1881   1.401       .  A
C1881      C1882   1.400       .  A
C1881      F1886   1.358       .  S
C1882      C1883   1.412       .  A
C1882      F1898   1.356       .  S
C1883      C1884   1.415       .  A
C1884      F1887   1.358       .  S
C1885      C1888   1.400       .  A
C1885      C1892   1.401       .  A
C1888      C1889   1.397       .  A
C1888      F1893   1.358       .  S
C1889      C1890   1.416   1_556  A
C1889      F1895   1.358       .  S
C1891      F1894   1.357       .  S
C1892      F1896   1.357   1_556  S
C1899      C1900   1.407       .  A
C1899      C1904   1.401       .  A
C1899      F1917   1.358       .  S
C1900      C1905   1.481       .  S
C1900      C1901   1.404       .  A
C1901      C1902   1.393       .  A
C1901      F1906   1.359       .  S
C1902      C1903   1.410       .  A
C1902      F1918   1.359       .  S
C1903      C1904   1.408       .  A
C1904      F1907   1.357       .  S
C1905      C1908   1.406       .  A
C1905      C1912   1.406       .  A
C1908      C1909   1.395       .  A
C1908      F1913   1.358       .  S
C1909      C1910   1.406       .  A
C1909      F1915   1.358       .  S
C1910      C1911   1.407       .  A
C1911      C1912   1.400       .  A
C1911      F1914   1.358       .  S
C1912      F1916   1.358       .  S
C1919      C1920   1.401       .  A
C1919      C1924   1.394       .  A
C1919      F1937   1.358       .  S
C1920      C1925   1.471       .  S
C1920      C1921   1.401       .  A
C1921      C1922   1.399       .  A
C1921      F1926   1.358       .  S
C1922      C1923   1.412       .  A
C1922      F1938   1.357       .  S
C1923      C1924   1.411       .  A
C1924      F1927   1.358       .  S
C1925      C1928   1.401       .  A
C1925      C1932   1.398       .  A
C1928      C1929   1.402       .  A
C1928      F1933   1.358       .  S
C1929      C1930   1.414       .  A
C1929      F1935   1.357       .  S
C1930      C1931   1.416       .  A
C1931      C1932   1.391       .  A
C1931      F1934   1.358       .  S
C1932      F1936   1.359       .  S
C1939      N1940   1.361       .  A
C1939      N1944   1.359       .  A
C1939      C2253   1.486       .  S
N1940      C1941   1.359       .  A
C1941      N1942   1.358       .  A
C1941      C1947   1.465       .  S
N1942      C1943   1.353       .  A
C1943      N1944   1.354       .  A
C1943      C2233   1.475       .  S
C1945      N1946   1.363       .  A
C1945      N1950   1.359       .  A
C1945      C2536   1.493       .  S
N1946      C1947   1.361       .  A
C1947      N1948   1.355       .  A
N1948      C1949   1.352       .  A
C1949      N1950   1.355       .  A
C1949      C2193   1.472       .  S
C1951      N1952   1.362       .  A
C1951      N1956   1.358       .  A
C1951      C2146   1.486       .  S
N1952      C1953   1.361       .  A
C1953      N1954   1.358       .  A
C1953      C1961   1.469       .  S
N1954      C1955   1.355       .  A
C1955      N1956   1.356       .  A
C1955      C2173   1.477       .  S
C1957      N1958   1.359       .  A
C1957      N1962   1.360       .  A
C1957      C2436   1.486       .  S
N1958      C1959   1.357       .  A
C1959      N1960   1.357       .  A
C1959      C2133   1.487       .  S
N1960      C1961   1.359       .  A
C1961      N1962   1.359       .  A
C1963      N1964   1.361       .  A
C1963      N1968   1.361       .  A
C1963      C2086   1.490       .  S
N1964      C1965   1.362       .  A
C1965      N1966   1.360       .  A
C1965      C1971   1.473       .  S
N1966      C1967   1.359       .  A
C1967      N1968   1.360       .  A
C1967      C2066   1.486       .  S
C1969      N1970   1.361       .  A
C1969      N1974   1.357       .  A
C1969      C2369   1.484       .  S
N1970      C1971   1.360       .  A
C1971      N1972   1.360       .  A
N1972      C1973   1.358       .  A
C1973      N1974   1.354       .  A
C1973      C2026   1.478       .  S
O1975     Mn2001   2.085       .  S
C1976      C2246   1.484       .  S
C1976      O2009   1.270       .  A
C1976      O2006   1.272       .  A
O1977     Mn1984   2.165       .  S
O1977     Mn1995   2.124       .  S
O1977     Mn1999   2.169       .  S
O1978     Mn2012   2.077       .  S
O1978      C1988   1.268       .  A
O1979     Mn1995   2.083       .  S
O1979      C2002   1.269       .  A
O1980     Mn1999   2.095       .  S
O1980      C2007   1.251       .  A
O1981     Mn2001   1.955       .  S
O1981      C1997   1.218       .  S
C1982      C2033   1.479       .  S
C1982      O1985   1.252       .  A
C1982      O2008   1.215       .  S
O1983     Mn1984   2.165       .  S
O1983     Mn2017   2.120       .  S
O1983     Mn1999   2.162       .  S
Mn1984     O1989   2.104       .  S
O1986     Mn1993   2.105       .  S
O1986      C1988   1.274       .  A
C1987      C2073   1.489       .  S
C1987      O2013   1.256       .  A
C1987      O2000   1.219       .  S
C1988      C2206   1.492       .  S
O1989      C2014   1.252       .  A
O1990     Mn1993   2.117       .  S
O1990     Mn2012   2.121       .  S
O1991     Mn1995   1.953       .  S
O1991     Mn2017   1.964       .  S
O1991      C2014   1.216       .  S
C1992      C2106   1.494       .  S
C1992      O1994   1.273       .  A
Mn1993     O2006   2.087       .  S
O1994     Mn2017   2.100       .  S
Mn1995     O2011   2.120       .  S
Mn1995     O2005   1.962       .  S
O1996     Mn2001   2.089       .  S
C1997      C2126   1.485       .  S
C1997      O2015   1.252       .  A
C1998      C2093   1.499       .  S
C1998      O2011   1.276       .  A
O2000     Mn2003   1.961       .  S
Mn2001     O2019   1.958       .  S
C2002      C2053   1.486       .  S
Mn2003     O2010   2.099       .  S
Mn2003     O2018   2.091       .  S
Mn2003     O2008   1.957       .  S
C2004      C2153   1.492       .  S
C2004      O2020   1.270       .  A
O2005     Mn2017   1.951       .  S
O2005      C2007   1.218       .  S
C2007      C2186   1.477       .  S
O2009     Mn2012   2.083       .  S
C2014      C2226   1.480       .  S
O2016      C2021   1.252       .  A
Mn2017     O2020   2.084       .  S
O2019      C2021   1.217       .  S
C2021      C2166   1.478       .  S
C2022      C2023   1.405       .  A
C2022      C2027   1.398       .  A
C2022      F2040   1.358       .  S
C2023      C2028   1.477       .  S
C2023      C2024   1.403       .  A
C2024      C2348   1.399       .  A
C2024      F2352   1.358   1_655  S
C2025      C2347   1.398   1_554  A
C2025      C2026   1.408       .  A
C2025      F2041   1.357   1_655  S
C2026      C2350   1.409   1_554  A
C2027      C2349   1.408       .  A
C2027      F2030   1.358       .  S
C2028      C2035   1.406       .  A
F2029      C2347   1.358   1_454  S
C2031      C2032   1.393       .  A
C2031      F2036   1.358       .  S
C2032      F2038   1.359       .  S
C2033      C2034   1.407       .  A
C2034      C2035   1.402       .  A
C2034      F2037   1.357       .  S
C2035      F2039   1.357       .  S
C2042      C2043   1.401       .  A
C2042      C2370   1.400       .  A
C2042      F2060   1.358       .  S
C2043      C2048   1.473       .  S
C2043      C2044   1.402       .  A
C2044      C2045   1.394       .  A
C2045      C2046   1.412       .  A
C2046      C2292   1.485       .  S
C2046      C2370   1.413       .  A
C2047      C2365   1.401   1_554  A
C2047      C2369   1.411       .  A
C2047      F2050   1.357       .  S
C2048      C2051   1.401   1_655  A
C2048      C2055   1.401       .  A
C2051      C2052   1.395       .  A
C2051      F2056   1.358       .  S
C2052      C2053   1.412   1_455  A
C2052      F2058   1.358       .  S
C2053      C2054   1.414       .  A
C2054      C2055   1.398       .  A
C2054      F2057   1.358       .  S
C2055      F2059   1.358       .  S
C2062      C2063   1.405       .  A
C2062      C2067   1.404       .  A
C2062      F2080   1.358       .  S
C2063      C2068   1.485       .  S
C2063      C2064   1.405   1_655  A
C2064      C2065   1.401       .  A
C2064      F2069   1.358       .  S
C2065      C2066   1.408   1_455  A
C2065      F2081   1.358       .  S
C2066      C2067   1.410       .  A
C2067      F2070   1.358       .  S
C2068      C2075   1.402       .  A
C2071      C2072   1.405       .  A
C2071      F2076   1.357       .  S
C2072      F2078   1.357       .  S
C2073      C2074   1.413       .  A
C2074      C2075   1.399       .  A
C2074      F2077   1.358       .  S
C2075      F2079   1.358       .  S
C2082      C2087   1.400       .  A
C2082      F2100   1.358       .  S
C2083      C2088   1.486       .  S
C2083      C2084   1.405       .  A
C2084      C2085   1.405       .  A
C2084      F2089   1.358       .  S
C2085      C2086   1.412       .  A
C2085      F2101   1.358       .  S
C2087      F2090   1.358       .  S
C2088      C2095   1.405       .  A
C2091      C2092   1.400       .  A
C2091      F2096   1.358       .  S
C2092      F2098   1.357       .  S
C2093      C2094   1.413       .  A
C2094      C2095   1.405       .  A
C2094      F2097   1.357       .  S
C2095      F2099   1.358       .  S
C2102      C2103   1.402   1_545  A
C2102      C2107   1.397       .  A
C2102      F2120   1.358       .  S
C2103      C2108   1.480       .  S
C2103      C2104   1.403       .  A
C2104      C2105   1.402       .  A
C2104      F2109   1.358       .  S
C2105      C2106   1.415       .  A
C2105      F2121   1.357       .  S
C2106      C2107   1.414   1_565  A
C2107      F2110   1.358       .  S
C2108      C2111   1.402       .  A
C2111      C2112   1.396       .  A
C2111      F2116   1.358   1_565  S
C2112      C2113   1.412       .  A
C2112      F2118   1.357   1_565  S
C2113      C2280   1.492       .  S
C2114      C2438   1.402       .  A
C2114      F2117   1.358       .  S
C2115      C2437   1.402       .  A
C2115      F2119   1.358       .  S
C2122      C2123   1.404       .  A
C2122      C2127   1.395       .  A
C2122      F2140   1.358       .  S
C2123      C2128   1.485       .  S
C2123      C2124   1.407       .  A
C2124      C2125   1.403       .  A
C2124      F2129   1.358   1_565  S
C2125      C2126   1.409       .  A
C2125      F2141   1.358       .  S
C2126      C2127   1.411       .  A
C2127      F2130   1.358       .  S
C2128      C2135   1.405       .  A
C2131      C2132   1.397       .  A
C2131      F2136   1.358       .  S
C2132      F2138   1.358       .  S
C2133      C2134   1.411       .  A
C2134      C2458   1.400       .  A
C2134      F2137   1.358       .  S
C2135      C2457   1.400       .  A
C2135      F2139   1.358       .  S
C2142      C2143   1.405       .  A
C2142      C2147   1.402       .  A
C2142      F2160   1.358   1_565  S
C2143      C2148   1.482       .  S
C2143      C2144   1.404       .  A
C2144      C2145   1.396       .  A
C2144      F2149   1.358       .  S
C2145      C2146   1.411       .  A
C2145      F2161   1.358       .  S
C2146      C2147   1.410       .  A
C2147      F2150   1.357       .  S
C2148      C2151   1.404   1_565  A
C2148      C2155   1.403       .  A
C2151      C2152   1.400       .  A
C2152      C2153   1.414   1_545  A
C2153      C2154   1.414       .  A
C2154      C2155   1.396       .  A
C2154      F2157   1.358       .  S
C2155      F2159   1.358       .  S
C2162      C2163   1.405       .  A
C2162      C2167   1.401       .  A
C2162      F2180   1.357       .  S
C2163      C2168   1.475       .  S
C2163      C2164   1.401       .  A
C2164      C2165   1.392       .  A
C2164      F2169   1.358       .  S
C2165      C2166   1.410       .  A
C2165      F2181   1.359   1_565  S
C2166      C2167   1.408       .  A
C2167      F2170   1.358       .  S
C2168      C2171   1.403       .  A
C2168      C2175   1.404       .  A
C2171      C2172   1.399       .  A
C2172      C2173   1.409       .  A
C2173      C2174   1.407       .  A
C2174      C2175   1.395       .  A
C2174      F2177   1.358       .  S
C2175      F2179   1.358       .  S
C2182      C2183   1.404       .  A
C2182      C2187   1.400       .  A
C2182      F2200   1.358       .  S
C2183      C2188   1.474       .  S
C2183      C2184   1.402       .  A
C2184      C2185   1.391       .  A
C2184      F2189   1.359       .  S
C2185      C2186   1.409       .  A
C2185      F2201   1.358       .  S
C2186      C2187   1.409       .  A
C2187      F2190   1.357       .  S
C2188      C2191   1.403       .  A
C2188      C2195   1.405       .  A
C2191      C2515   1.398       .  A
C2191      F2519   1.358       .  S
C2192      C2514   1.398       .  A
C2192      C2193   1.408       .  A
C2192      F2198   1.358       .  S
C2193      C2517   1.404   1_554  A
C2194      C2516   1.405       .  A
C2194      C2195   1.394       .  A
C2194      F2197   1.358       .  S
C2195      F2199   1.358       .  S
F2196      C2514   1.358       .  S
C2202      C2203   1.400       .  A
C2202      C2207   1.398       .  A
C2202      F2220   1.358       .  S
C2203      C2208   1.474       .  S
C2203      C2204   1.401       .  A
C2204      C2205   1.399       .  A
C2204      F2209   1.358       .  S
C2205      C2206   1.413       .  A
C2205      F2221   1.357       .  S
C2206      C2207   1.417       .  A
C2207      F2210   1.358       .  S
C2208      C2211   1.399       .  A
C2208      C2215   1.401       .  A
C2211      C2212   1.396       .  A
C2211      F2216   1.358       .  S
C2212      C2213   1.416       .  A
C2212      F2218   1.358       .  S
C2213      C2268   1.493       .  S
C2213      C2537   1.414       .  A
C2214      C2536   1.414       .  A
C2214      C2538   1.402   1_554  A
C2214      F2217   1.357       .  S
C2215      C2537   1.401       .  A
C2215      F2219   1.357       .  S
C2222      C2223   1.407       .  A
C2222      C2227   1.402       .  A
C2222      F2240   1.358       .  S
C2223      C2228   1.480       .  S
C2223      C2224   1.403       .  A
C2224      C2225   1.392       .  A
C2224      F2229   1.358       .  S
C2225      C2226   1.410       .  A
C2225      F2241   1.358       .  S
C2226      C2227   1.408       .  A
C2227      F2230   1.358       .  S
C2228      C2231   1.407       .  A
C2228      C2235   1.405       .  A
C2231      C2232   1.396       .  A
C2231      F2236   1.358       .  S
C2232      C2233   1.405       .  A
C2232      F2238   1.358       .  S
C2233      C2234   1.407       .  A
C2234      C2235   1.399       .  A
C2234      F2237   1.358       .  S
C2235      F2239   1.358       .  S
C2242      C2243   1.400       .  A
C2242      C2247   1.396       .  A
C2242      F2260   1.358       .  S
C2243      C2248   1.468       .  S
C2243      C2244   1.400       .  A
C2244      C2245   1.396       .  A
C2244      F2249   1.358       .  S
C2245      C2246   1.413       .  A
C2245      F2261   1.358       .  S
C2246      C2247   1.413       .  A
C2247      F2250   1.358       .  S
C2248      C2251   1.400       .  A
C2248      C2255   1.398       .  A
C2251      C2252   1.400       .  A
C2251      F2256   1.358       .  S
C2252      C2253   1.413       .  A
C2252      F2258   1.357       .  S
C2253      C2254   1.414       .  A
C2254      C2255   1.393       .  A
C2254      F2257   1.358       .  S
C2255      F2259   1.359       .  S
C2262      N2263   1.362       .  A
C2262      N2267   1.358       .  A
C2262      C2576   1.486       .  S
N2263      C2264   1.359       .  A
C2264      N2265   1.358       .  A
C2264      C2270   1.464       .  S
N2265      C2266   1.352       .  A
C2266      N2267   1.353       .  A
C2266      C2556   1.474       .  S
C2268      N2269   1.363       .  A
C2268      N2273   1.359       .  A
N2269      C2270   1.361       .  A
C2270      N2271   1.354       .  A
N2271      C2272   1.351       .  A
C2272      N2273   1.355       .  A
C2272      C2516   1.473       .  S
C2274      N2275   1.362       .  A
C2274      N2279   1.358       .  A
C2274      C2469   1.486       .  S
N2275      C2276   1.362       .  A
C2276      N2277   1.358       .  A
C2276      C2284   1.470       .  S
N2277      C2278   1.356       .  A
C2278      N2279   1.356       .  A
C2278      C2496   1.480       .  S
C2280      N2281   1.361       .  A
C2280      N2285   1.362       .  A
N2281      C2282   1.358       .  A
C2282      N2283   1.356       .  A
C2282      C2456   1.483       .  S
N2283      C2284   1.358       .  A
C2284      N2285   1.359       .  A
C2286      N2287   1.361       .  A
C2286      N2291   1.360       .  A
C2286      C2409   1.488       .  S
N2287      C2288   1.362       .  A
C2288      N2289   1.357       .  A
C2288      C2294   1.470       .  S
N2289      C2290   1.357       .  A
C2290      N2291   1.359       .  A
C2290      C2389   1.479       .  S
C2292      N2293   1.360       .  A
C2292      N2297   1.359       .  A
N2293      C2294   1.358       .  A
C2294      N2295   1.360       .  A
N2295      C2296   1.358       .  A
C2296      N2297   1.356       .  A
C2296      C2349   1.479       .  S
O2298     Mn2324   2.095       .  S
C2299      C2569   1.482       .  S
C2299      O2332   1.270       .  A
C2299      O2329   1.271       .  A
O2300     Mn2307   2.162       .  S
O2300     Mn2318   2.126       .  S
O2300     Mn2322   2.170       .  S
O2301     Mn2335   2.075       .  S
O2301      C2311   1.268       .  A
O2302     Mn2318   2.080       .  S
O2302      C2325   1.269       .  A
O2303     Mn2322   2.097       .  S
O2303      C2330   1.252       .  A
O2304     Mn2324   1.956       .  S
O2304      C2320   1.217       .  S
C2305      C2356   1.475       .  S
C2305      O2308   1.251       .  A
C2305      O2331   1.214       .  S
O2306     Mn2307   2.163       .  S
O2306     Mn2340   2.119       .  S
O2306     Mn2322   2.164       .  S
Mn2307     O2312   2.100       .  S
O2309     Mn2316   2.110       .  S
O2309      C2311   1.275       .  A
C2310      C2396   1.485       .  S
C2310      O2336   1.254       .  A
C2310      O2323   1.218       .  S
C2311      C2529   1.493       .  S
O2312      C2337   1.252       .  A
O2313     Mn2316   2.119       .  S
O2313     Mn2335   2.119       .  S
O2314     Mn2318   1.955       .  S
O2314     Mn2340   1.963       .  S
O2314      C2337   1.217       .  S
C2315      C2429   1.489       .  S
C2315      O2317   1.272       .  A
Mn2316     O2329   2.088       .  S
O2317     Mn2340   2.093       .  S
Mn2318     O2334   2.108       .  S
Mn2318     O2328   1.958       .  S
O2319     Mn2324   2.093       .  S
C2320      C2449   1.480       .  S
C2320      O2338   1.252       .  A
C2321      C2416   1.495       .  S
C2321      O2334   1.274       .  A
O2323     Mn2326   1.960       .  S
Mn2324     O2342   1.960       .  S
C2325      C2376   1.487       .  S
Mn2326     O2333   2.098       .  S
Mn2326     O2341   2.091       .  S
Mn2326     O2331   1.953       .  S
C2327      C2476   1.492       .  S
C2327      O2343   1.271       .  A
O2328     Mn2340   1.954       .  S
O2328      C2330   1.219       .  S
C2330      C2509   1.481       .  S
O2332     Mn2335   2.082       .  S
C2337      C2549   1.480       .  S
O2339      C2344   1.252       .  A
Mn2340     O2343   2.085       .  S
O2342      C2344   1.217       .  S
C2344      C2489   1.479       .  S
C2345      C2346   1.404       .  A
C2345      C2350   1.397       .  A
C2345      F2363   1.359       .  S
C2346      C2351   1.474       .  S
C2346      C2347   1.402       .  A
C2348      C2349   1.408       .  A
C2348      F2364   1.357   1_655  S
C2350      F2353   1.358       .  S
C2351      C2358   1.405       .  A
C2354      C2355   1.393       .  A
C2354      F2359   1.358       .  S
C2355      F2361   1.359       .  S
C2356      C2357   1.406       .  A
C2357      C2358   1.400       .  A
C2357      F2360   1.357       .  S
C2358      F2362   1.357       .  S
C2365      C2366   1.403       .  A
C2365      F2383   1.357   1_556  S
C2366      C2371   1.474       .  S
C2366      C2367   1.401       .  A
C2367      C2368   1.394       .  A
C2368      C2369   1.412   1_556  A
C2370      F2373   1.357       .  S
C2371      C2374   1.402   1_655  A
C2371      C2378   1.401       .  A
C2374      C2375   1.395       .  A
C2374      F2379   1.358       .  S
C2375      C2376   1.411   1_455  A
C2375      F2381   1.357       .  S
C2376      C2377   1.415       .  A
C2377      C2378   1.398       .  A
C2377      F2380   1.358       .  S
C2378      F2382   1.358       .  S
C2385      C2386   1.404       .  A
C2385      C2390   1.401       .  A
C2385      F2403   1.358       .  S
C2386      C2391   1.480       .  S
C2386      C2387   1.405   1_655  A
C2387      C2388   1.399       .  A
C2387      F2392   1.358       .  S
C2388      C2389   1.406   1_455  A
C2388      F2404   1.358       .  S
C2389      C2390   1.409       .  A
C2390      F2393   1.358       .  S
C2391      C2398   1.401       .  A
C2394      C2395   1.404       .  A
C2394      F2399   1.357       .  S
C2395      F2401   1.357       .  S
C2396      C2397   1.412       .  A
C2397      C2398   1.396       .  A
C2397      F2400   1.358       .  S
C2398      F2402   1.358       .  S
C2405      C2410   1.400       .  A
C2405      F2423   1.358       .  S
C2406      C2411   1.483       .  S
C2406      C2407   1.404       .  A
C2407      C2408   1.404       .  A
C2407      F2412   1.358       .  S
C2408      C2409   1.411       .  A
C2408      F2424   1.358       .  S
C2410      F2413   1.358       .  S
C2411      C2418   1.404       .  A
C2414      C2415   1.401       .  A
C2414      F2419   1.358       .  S
C2415      F2421   1.357       .  S
C2416      C2417   1.413       .  A
C2417      C2418   1.403       .  A
C2417      F2420   1.358       .  S
C2418      F2422   1.358       .  S
C2425      C2426   1.402   1_545  A
C2425      C2430   1.396       .  A
C2425      F2443   1.358       .  S
C2426      C2431   1.477       .  S
C2426      C2427   1.402       .  A
C2427      C2428   1.399       .  A
C2427      F2432   1.358       .  S
C2428      C2429   1.414       .  A
C2428      F2444   1.358       .  S
C2429      C2430   1.414   1_565  A
C2430      F2433   1.358       .  S
C2431      C2434   1.402       .  A
C2434      C2435   1.394       .  A
C2434      F2439   1.358   1_565  S
C2435      C2436   1.411   1_556  A
C2435      F2441   1.357   1_565  S
C2437      F2440   1.358       .  S
C2438      F2442   1.358       .  S
C2445      C2446   1.405       .  A
C2445      C2450   1.393       .  A
C2445      F2463   1.358       .  S
C2446      C2451   1.485       .  S
C2446      C2447   1.408       .  A
C2447      C2448   1.402       .  A
C2447      F2452   1.357   1_565  S
C2448      C2449   1.407       .  A
C2448      F2464   1.358   1_565  S
C2449      C2450   1.409       .  A
C2450      F2453   1.359       .  S
C2451      C2458   1.406   1_556  A
C2454      C2455   1.396       .  A
C2454      F2459   1.359       .  S
C2455      F2461   1.357       .  S
C2456      C2457   1.409       .  A
C2457      F2460   1.358       .  S
C2458      F2462   1.358       .  S
C2465      C2466   1.405       .  A
C2465      C2470   1.402       .  A
C2465      F2483   1.358   1_565  S
C2466      C2471   1.482       .  S
C2466      C2467   1.404       .  A
C2467      C2468   1.396       .  A
C2467      F2472   1.358       .  S
C2468      C2469   1.411       .  A
C2468      F2484   1.358       .  S
C2469      C2470   1.410       .  A
C2470      F2473   1.357   1_565  S
C2471      C2474   1.404   1_565  A
C2471      C2478   1.402       .  A
C2474      C2475   1.400       .  A
C2475      C2476   1.413   1_545  A
C2476      C2477   1.414       .  A
C2477      C2478   1.396       .  A
C2477      F2480   1.357       .  S
C2478      F2482   1.358       .  S
C2485      C2486   1.405       .  A
C2485      C2490   1.402       .  A
C2485      F2503   1.357       .  S
C2486      C2491   1.477       .  S
C2486      C2487   1.402       .  A
C2487      C2488   1.392       .  A
C2487      F2492   1.358   1_565  S
C2488      C2489   1.411       .  A
C2488      F2504   1.359   1_565  S
C2489      C2490   1.408       .  A
C2490      F2493   1.357       .  S
C2491      C2494   1.403       .  A
C2491      C2498   1.404       .  A
C2494      C2495   1.400       .  A
C2495      C2496   1.410       .  A
C2496      C2497   1.408       .  A
C2497      C2498   1.396       .  A
C2497      F2500   1.358       .  S
C2498      F2502   1.358       .  S
C2505      C2506   1.404       .  A
C2505      C2510   1.401       .  A
C2505      F2523   1.358       .  S
C2506      C2511   1.476       .  S
C2506      C2507   1.402       .  A
C2507      C2508   1.393       .  A
C2507      F2512   1.359       .  S
C2508      C2509   1.410       .  A
C2508      F2524   1.358       .  S
C2509      C2510   1.410       .  A
C2510      F2513   1.357       .  S
C2511      C2514   1.404   1_556  A
C2511      C2518   1.405       .  A
C2515      C2516   1.409       .  A
C2515      F2521   1.358       .  S
C2517      C2518   1.396       .  A
C2517      F2520   1.358       .  S
C2518      F2522   1.358       .  S
C2525      C2526   1.399       .  A
C2525      C2530   1.398       .  A
C2525      F2543   1.358       .  S
C2526      C2531   1.475       .  S
C2526      C2527   1.402       .  A
C2527      C2528   1.401       .  A
C2527      F2532   1.358       .  S
C2528      C2529   1.412       .  A
C2528      F2544   1.357       .  S
C2529      C2530   1.417       .  A
C2530      F2533   1.358       .  S
C2531      C2534   1.399       .  A
C2531      C2538   1.401       .  A
C2534      C2535   1.396       .  A
C2534      F2539   1.358       .  S
C2535      C2536   1.416   1_556  A
C2535      F2541   1.358       .  S
C2537      F2540   1.357       .  S
C2538      F2542   1.357   1_556  S
C2545      C2546   1.406       .  A
C2545      C2550   1.401       .  A
C2545      F2563   1.358       .  S
C2546      C2551   1.480       .  S
C2546      C2547   1.404       .  A
C2547      C2548   1.393       .  A
C2547      F2552   1.358       .  S
C2548      C2549   1.410       .  A
C2548      F2564   1.359       .  S
C2549      C2550   1.408       .  A
C2550      F2553   1.358       .  S
C2551      C2554   1.407       .  A
C2551      C2558   1.406       .  A
C2554      C2555   1.395       .  A
C2554      F2559   1.358       .  S
C2555      C2556   1.405       .  A
C2555      F2561   1.358       .  S
C2556      C2557   1.407       .  A
C2557      C2558   1.399       .  A
C2557      F2560   1.358       .  S
C2558      F2562   1.358       .  S
C2565      C2566   1.400       .  A
C2565      C2570   1.395       .  A
C2565      F2583   1.358       .  S
C2566      C2571   1.468       .  S
C2566      C2567   1.400       .  A
C2567      C2568   1.397       .  A
C2567      F2572   1.358       .  S
C2568      C2569   1.412       .  A
C2568      F2584   1.357       .  S
C2569      C2570   1.412       .  A
C2570      F2573   1.358       .  S
C2571      C2574   1.401       .  A
C2571      C2578   1.398       .  A
C2574      C2575   1.401       .  A
C2574      F2579   1.358       .  S
C2575      C2576   1.413       .  A
C2575      F2581   1.357       .  S
C2576      C2577   1.414       .  A
C2577      C2578   1.392       .  A
C2577      F2580   1.358       .  S
C2578      F2582   1.358       .  S
