geometry optimzed in LAMMPS
_audit_creation_date              2020-11-30 
_audit_creation_method            'lammps2cif' 
_symmetry_space_group_name_H-M    'P1' 
_symmetry_Int_Tables_number       1 
_symmetry_cell_setting            triclinic 
loop_ 
_symmetry_equiv_pos_as_xyz 
  x,y,z 
_cell_length_a                    43.60062382944643 
_cell_length_b                    43.600537477215035 
_cell_length_c                    43.46765398857986 
_cell_angle_alpha                 89.94017615078519 
_cell_angle_beta                  90.32834974337474 
_cell_angle_gamma                 89.93614870683871 
loop_ 
_atom_site_label 
_atom_site_type_symbol 
_atom_site_fract_x 
_atom_site_fract_y 
_atom_site_fract_z 
_atom_site_charge 
O1          O  0.47572246  0.99971065  0.29438914    -0.74920
O2          O  0.47446412  0.50019346  0.20637186    -0.74950
O3          O  0.47520025  0.45622141  0.25032224    -0.75000
O4          O  0.47526007  0.04400973  0.25062084    -0.75050
O5          O  0.02621130  0.04391410  0.24931666    -0.74980
O6          O  0.02626437  0.45623702  0.25051618    -0.74960
O7          O  0.02549911  0.99950247  0.20579937    -0.74940
O8          O  0.02691468  0.50073735  0.29399027    -0.75000
Ni9        Ni  0.47334091  0.50007428  0.25041751     1.25410
Ni10       Ni  0.02804547  0.50009900  0.24987385     1.25360
C11         C  0.00149944  0.00014197  0.30859531     0.87260
C12         C  0.99970110  0.49944737  0.19149117     0.87200
C13         C  0.50077528  0.44170803  0.25075980     0.87220
C14         C  0.50080452  0.05856574  0.25014496     0.87390
O15         O  0.02331361  0.25008559  0.29429490    -0.74920
O16         O  0.02272231  0.25057439  0.20609563    -0.74950
O17         O  0.02316848  0.29425606  0.25031904    -0.75000
O18         O  0.02284756  0.20644121  0.24996483    -0.75050
O19         O  0.47188983  0.20671024  0.25020141    -0.74980
O20         O  0.47212183  0.29440397  0.25016680    -0.74960
O21         O  0.47169209  0.25060780  0.20614550    -0.74940
O22         O  0.47226818  0.25046515  0.29416661    -0.75000
Ni23       Ni  0.02485176  0.25034202  0.25017946     1.25410
Ni24       Ni  0.47020242  0.25056608  0.25017747     1.25360
C25         C  0.49780569  0.24988704  0.30881883     0.87260
C26         C  0.49707673  0.25078454  0.19150862     0.87200
C27         C  0.49764225  0.30886687  0.25001622     0.87220
C28         C  0.49726369  0.19196342  0.24994298     0.87390
O29         O  0.22345134  0.00116788  0.29391724    -0.74920
O30         O  0.22336927  0.50031447  0.20581311    -0.74950
O31         O  0.22329616  0.45672903  0.25032783    -0.75000
O32         O  0.22349582  0.04448409  0.24939026    -0.75050
O33         O  0.27456959  0.04434092  0.24990042    -0.74980
O34         O  0.27436286  0.45637856  0.25037060    -0.74960
O35         O  0.27459186  0.00000329  0.20611838    -0.74940
O36         O  0.27465560  0.50026329  0.29414137    -0.75000
Ni37       Ni  0.22158644  0.50065603  0.24985611     1.25410
Ni38       Ni  0.27638058  0.50027827  0.25014121     1.25360
C39         C  0.24908441  0.50075965  0.30843578     0.87260
C40         C  0.24898915  0.50004541  0.19158507     0.87200
C41         C  0.24872919  0.44201091  0.25064969     0.87220
C42         C  0.24900927  0.05896086  0.24931052     0.87390
O43         O  0.27645238  0.25067083  0.29409720    -0.74920
O44         O  0.27632400  0.25013415  0.20605412    -0.74950
O45         O  0.27642692  0.29433850  0.24974625    -0.75000
O46         O  0.27630197  0.20656923  0.25044166    -0.75050
O47         O  0.22522513  0.20667485  0.25019364    -0.74980
O48         O  0.22535631  0.29462517  0.24951644    -0.74960
O49         O  0.22510168  0.25063434  0.20583370    -0.74940
O50         O  0.22522881  0.25114950  0.29388436    -0.75000
Ni51       Ni  0.27818927  0.25043186  0.25008907     1.25410
Ni52       Ni  0.22338642  0.25073317  0.24984909     1.25360
C53         C  0.25086569  0.25109320  0.30836537     0.87260
C54         C  0.25069155  0.25048045  0.19156522     0.87200
C55         C  0.25097544  0.30901784  0.24932849     0.87220
C56         C  0.25079370  0.19207038  0.25065985     0.87390
O57         O  0.00061185  0.47566422  0.45563439    -0.74920
O58         O  0.49998897  0.47400207  0.04379017    -0.74950
O59         O  0.45650057  0.47419027  0.49925047    -0.75000
O60         O  0.04416464  0.47551987  0.00008664    -0.75050
O61         O  0.04340805  0.02650229  0.50031988    -0.74980
O62         O  0.45572097  0.02517724  0.00097041    -0.74960
O63         O  0.00033583  0.02519018  0.04460471    -0.74940
O64         O  0.49911936  0.02664382  0.45656785    -0.75000
Ni65       Ni  0.50034407  0.47301120  0.49966704     1.25410
Ni66       Ni  0.49956757  0.02769530  0.00063494     1.25360
C67         C  0.50022967  0.00147596  0.44148014     0.87260
C68         C  0.50035731  0.99936240  0.05861977     0.87200
C69         C  0.44155429  0.49942488  0.50032426     0.87220
C70         C  0.05836192  0.50125142  0.50002265     0.87390
O71         O  0.49921457  0.22346581  0.45606431    -0.74920
O72         O  0.50038608  0.22346621  0.04426213    -0.74950
O73         O  0.45590604  0.22380885  0.50021296    -0.75000
O74         O  0.04364714  0.22291413  0.99982940    -0.75050
O75         O  0.04430504  0.27390627  0.50080963    -0.74980
O76         O  0.45617947  0.27497271  0.99950561    -0.74960
O77         O  0.49960349  0.27466576  0.04414166    -0.74940
O78         O  0.50094667  0.27463721  0.45611566    -0.75000
Ni79       Ni  0.49977483  0.22159664  0.50012557     1.25410
Ni80       Ni  0.50027361  0.27639502  0.00014462     1.25360
C81         C  0.50022876  0.24907894  0.44166641     0.87260
C82         C  0.49996627  0.24910580  0.05862727     0.87200
C83         C  0.44156351  0.24944467  0.49956240     0.87220
C84         C  0.05857823  0.24814602  0.50035733     0.87390
O85         O  0.25023372  0.47380658  0.45641537    -0.74920
O86         O  0.25050779  0.47566627  0.04455195    -0.74950
O87         O  0.20657387  0.47395867  0.50041003    -0.75000
O88         O  0.29425294  0.47546677  0.00044939    -0.75050
O89         O  0.29334198  0.02640488  0.49938572    -0.74980
O90         O  0.20565817  0.02493706  0.99945623    -0.74960
O91         O  0.24972037  0.02659523  0.04335603    -0.74940
O92         O  0.24930311  0.02481580  0.45534765    -0.75000
Ni93       Ni  0.25043987  0.47289099  0.50050272     1.25410
Ni94       Ni  0.24946566  0.02750252  0.99933664     1.25360
C95         C  0.24993004  0.49901021  0.44127568     0.87260
C96         C  0.24995488  0.50150173  0.05862266     0.87200
C97         C  0.19154258  0.49916856  0.50014516     0.87220
C98         C  0.30838331  0.50120046  0.49973184     0.87390
O99         O  0.29441645  0.27509822  0.50097972    -0.74920
O100        O  0.20660640  0.27524364  0.99920996    -0.74950
O101        O  0.25005506  0.27477336  0.04422174    -0.75000
O102        O  0.25108807  0.27503664  0.45582324    -0.75050
O103        O  0.25065787  0.22408283  0.45602915    -0.74980
O104        O  0.25017606  0.22381609  0.04374779    -0.74960
O105        O  0.20645888  0.22423382  0.49925332    -0.74940
O106        O  0.29447131  0.22398748  0.00031597    -0.75000
Ni107      Ni  0.25052734  0.27687588  0.50005193     1.25410
Ni108      Ni  0.25043891  0.22224139  0.49985297     1.25360
C109        C  0.30893533  0.24956476  0.50106480     0.87260
C110        C  0.19194444  0.24983598  0.49874575     0.87200
C111        C  0.25028529  0.24907147  0.05864488     0.87220
C112        C  0.25110557  0.24942391  0.44126899     0.87390
C113        C  0.39196787  0.27012235  0.01849543    -0.09650
C114        C  0.40765217  0.24953224  0.49936120     0.06550
C115        C  0.39058805  0.22892680  0.48102158    -0.03410
C116        C  0.35852322  0.22904344  0.48226753    -0.07860
C117        C  0.34284100  0.24961409  0.50136955     0.05660
C118        C  0.35987346  0.27015244  0.01982903    -0.02890
Br119      Br  0.34074670  0.29702479  0.04900172    -0.02580
H120        H  0.40477214  0.28571092  0.03308713     0.09580
H121        H  0.34574070  0.21340610  0.46770658     0.07590
Br122      Br  0.40960941  0.20152988  0.45230801    -0.03010
C123        C  0.10816982  0.27407857  0.48942424    -0.09650
C124        C  0.09270180  0.24781747  0.49987689     0.06550
C125        C  0.11031505  0.22204661  0.00901617    -0.03410
C126        C  0.14235825  0.22341030  0.00832527    -0.07860
C127        C  0.15782808  0.24978101  0.49823148     0.05660
C128        C  0.14022256  0.27517512  0.48810229    -0.02890
Br129      Br  0.15785310  0.31138718  0.47020827    -0.02580
H130        H  0.09522797  0.29380881  0.48150286     0.09580
H131        H  0.15529046  0.20360160  0.01606191     0.07590
Br132      Br  0.09289664  0.18424168  0.02347663    -0.03010
C133        C  0.39187453  0.02621845  0.49217078    -0.09650
C134        C  0.40750950  0.49921517  0.50043967     0.06550
C135        C  0.39012386  0.47308405  0.00852279    -0.03410
C136        C  0.35810358  0.47447789  0.00795464    -0.07860
C137        C  0.34245623  0.50145607  0.49965047     0.05660
C138        C  0.35985349  0.02762602  0.49161354    -0.02890
Br139      Br  0.34217986  0.06591150  0.47844060    -0.02580
H140        H  0.40464116  0.04647688  0.48563498     0.09580
H141        H  0.34537577  0.45420502  0.01451121     0.07590
Br142      Br  0.40791532  0.43494687  0.02197418    -0.03010
C143        C  0.10800472  0.47424905  0.00764294    -0.09650
C144        C  0.09241605  0.50142830  0.49990587     0.06550
C145        C  0.10984723  0.02767950  0.49226410    -0.03410
C146        C  0.14185483  0.02615722  0.49263340    -0.07860
C147        C  0.15747060  0.49896186  0.50034431     0.05660
C148        C  0.14001935  0.47272250  0.00800493    -0.02890
Br149      Br  0.15760712  0.43411116  0.02031394    -0.02580
H150        H  0.09522712  0.45389734  0.01385241     0.09580
H151        H  0.15460964  0.04652362  0.48642657     0.07590
Br152      Br  0.09223582  0.06625103  0.47985859    -0.03010
C153        C  0.25712197  0.22308798  0.14245478    -0.09650
C154        C  0.25064824  0.25040371  0.15786943     0.06550
C155        C  0.24430402  0.27711640  0.14094614    -0.03410
C156        C  0.24439494  0.27616683  0.10878240    -0.07860
C157        C  0.25058599  0.24870726  0.09289078     0.05660
C158        C  0.25706075  0.22184398  0.11031251    -0.02890
Br159      Br  0.26682946  0.18261043  0.09268661    -0.02580
H160        H  0.26214345  0.20251420  0.15557121     0.09580
H161        H  0.23945367  0.29707137  0.09622310     0.07590
Br162      Br  0.23622351  0.31550852  0.16090756    -0.03010
C163        C  0.25701100  0.22354169  0.35749595    -0.09650
C164        C  0.25095590  0.25100342  0.34205438     0.06550
C165        C  0.24522447  0.27779646  0.35894104    -0.03410
C166        C  0.24555501  0.27679481  0.39111058    -0.07860
C167        C  0.25137291  0.24919847  0.40702755     0.05660
C168        C  0.25715849  0.22223487  0.38962961    -0.02890
Br169      Br  0.26612108  0.18271564  0.40724834    -0.02580
H170        H  0.26154553  0.20290016  0.34440053     0.09580
H171        H  0.24104935  0.29775063  0.40365134     0.07590
Br172      Br  0.23759387  0.31632506  0.33892402    -0.03010
C173        C  0.24363842  0.02774485  0.14234846    -0.09650
C174        C  0.24905079  0.50017823  0.15788506     0.06550
C175        C  0.25469036  0.47333272  0.14107772    -0.03410
C176        C  0.25486149  0.47435789  0.10893058    -0.07860
C177        C  0.24963119  0.50201942  0.09288839     0.05660
C178        C  0.24398432  0.02905789  0.11018883    -0.02890
Br179      Br  0.23598568  0.06866454  0.09235596    -0.02580
H180        H  0.23926465  0.04845788  0.15538309     0.09580
H181        H  0.25921589  0.45330138  0.09650890     0.07590
Br182      Br  0.26156665  0.43467789  0.16114643    -0.03010
C183        C  0.26168242  0.47522035  0.35770177    -0.09650
C184        C  0.24921636  0.50051056  0.34218984     0.06550
C185        C  0.23735409  0.02519028  0.35911674    -0.03410
C186        C  0.23788274  0.02418992  0.39126430    -0.07860
C187        C  0.24994331  0.49866988  0.40712981     0.05660
C188        C  0.26201798  0.47393630  0.38987146    -0.02890
Br189      Br  0.28063682  0.43831480  0.40820536    -0.02580
H190        H  0.27108025  0.45626877  0.34466933     0.09580
H191        H  0.22867344  0.04349340  0.40388085     0.07590
Br192      Br  0.22170955  0.06136724  0.33926744    -0.03010
C193        C  0.22560909  0.35846390  0.26181115    -0.09650
C194        C  0.25088210  0.34302605  0.24920001     0.06550
C195        C  0.27527850  0.36050928  0.23707394    -0.03410
C196        C  0.27404942  0.39254344  0.23809613    -0.07860
C197        C  0.24878977  0.40798935  0.25073648     0.05660
C198        C  0.22438837  0.39049826  0.26285270    -0.02890
Br199      Br  0.18950943  0.40839158  0.28288551    -0.02580
H200        H  0.20682329  0.34551729  0.27155882     0.09580
H201        H  0.29283542  0.40548409  0.22834065     0.07590
Br202      Br  0.31018532  0.34259141  0.21710217    -0.03010
C203        C  0.27377207  0.10849771  0.26298530    -0.09650
C204        C  0.24908732  0.09300157  0.24913410     0.06550
C205        C  0.22503232  0.11045607  0.23590192    -0.03410
C206        C  0.22600930  0.14252179  0.23703238    -0.07860
C207        C  0.25070931  0.15802137  0.25085879     0.05660
C208        C  0.27475277  0.14056341  0.26410471    -0.02890
Br209      Br  0.30872702  0.15863054  0.28581083    -0.02580
H210        H  0.29222950  0.09557393  0.27363032     0.09580
H211        H  0.20754228  0.15544501  0.22640329     0.07590
Br212      Br  0.19104830  0.09239140  0.21419193    -0.03010
C213        C  0.47385302  0.26160983  0.10736624    -0.09650
C214        C  0.49941616  0.24933952  0.09241436     0.06550
C215        C  0.02412891  0.23805884  0.10994926    -0.03410
C216        C  0.02288579  0.23889479  0.14206452    -0.07860
C217        C  0.49709130  0.25071568  0.15735232     0.05660
C218        C  0.47232253  0.26223789  0.13951378    -0.02890
Br219      Br  0.43624664  0.28038470  0.15696586    -0.02580
H220        H  0.45487380  0.27062743  0.09390899     0.09580
H221        H  0.04221818  0.23008610  0.15511679     0.07590
Br222      Br  0.06072725  0.22287040  0.09110410    -0.03010
C223        C  0.02318549  0.26190502  0.35882467    -0.09650
C224        C  0.49800695  0.24923891  0.34292931     0.06550
C225        C  0.47386884  0.23604047  0.36009941    -0.03410
C226        C  0.47529722  0.23594854  0.39224192    -0.07860
C227        C  0.50011662  0.24913640  0.40787438     0.05660
C228        C  0.02428772  0.26209402  0.39100805    -0.02890
Br229      Br  0.05991026  0.27888579  0.41092679    -0.02580
H230        H  0.04201967  0.27194407  0.34620781     0.09580
H231        H  0.45677343  0.22572938  0.40514027     0.07590
Br232      Br  0.43890874  0.21640991  0.34159788    -0.03010
C233        C  0.47572149  0.48613016  0.10801158    -0.09650
C234        C  0.50062863  0.99889592  0.09239944     0.06550
C235        C  0.02523632  0.01131179  0.10926586    -0.03410
C236        C  0.02452384  0.01105631  0.14142646    -0.07860
C237        C  0.49931126  0.49885000  0.15735686     0.05660
C238        C  0.47469234  0.48616128  0.14019348    -0.02890
Br239      Br  0.43955916  0.46726764  0.15877432    -0.02580
H240        H  0.45680841  0.47635692  0.09506024     0.09580
H241        H  0.04371954  0.02072161  0.15400724     0.07590
Br242      Br  0.06086665  0.02760698  0.08931898    -0.03010
C243        C  0.01141243  0.02642424  0.35801059    -0.09650
C244        C  0.00179291  0.00010768  0.34234002     0.06550
C245        C  0.49203947  0.47438441  0.35908696    -0.03410
C246        C  0.49179587  0.47535343  0.39123503    -0.07860
C247        C  0.50093941  0.00188157  0.40729899     0.05660
C248        C  0.01094778  0.02767751  0.39018130    -0.02890
Br249      Br  0.02541697  0.06503584  0.40862836    -0.02580
H250        H  0.01906436  0.04623928  0.34509795     0.09580
H251        H  0.48419979  0.45524139  0.40367640     0.07590
Br252      Br  0.47994876  0.43709279  0.33896456    -0.03010
C253        C  0.02342797  0.35809650  0.26252746    -0.09650
C254        C  0.49791013  0.34285405  0.24994122     0.06550
C255        C  0.47347268  0.36051849  0.23778308    -0.03410
C256        C  0.47502159  0.39251113  0.23849653    -0.07860
C257        C  0.50054100  0.40774555  0.25102796     0.05660
C258        C  0.02490367  0.39011951  0.26337011    -0.02890
Br259      Br  0.06004495  0.40783580  0.28344445    -0.02580
H260        H  0.04221131  0.34501822  0.27237279     0.09580
H261        H  0.45622099  0.40558254  0.22866764     0.07590
Br262      Br  0.43790513  0.34300631  0.21835229    -0.03010
C263        C  0.02528679  0.14252717  0.25558066    -0.09650
C264        C  0.49741548  0.15782464  0.24988142     0.06550
C265        C  0.47081949  0.13999280  0.24437694    -0.03410
C266        C  0.47272350  0.10798093  0.24469334    -0.07860
C267        C  0.50060458  0.09269331  0.25032051     0.05660
C268        C  0.02718099  0.11051731  0.25594529    -0.02890
Br269      Br  0.06687844  0.09352083  0.26536534    -0.02580
H270        H  0.04595826  0.15553797  0.26014581     0.09580
H271        H  0.45205337  0.09495534  0.24015930     0.07590
Br272      Br  0.43104025  0.15696710  0.23533921    -0.03010
O273        O  0.47572090  0.99971111  0.79438785    -0.74920
O274        O  0.47446660  0.50019287  0.70637057    -0.74950
O275        O  0.47520061  0.45622129  0.75032128    -0.75000
O276        O  0.47526062  0.04400963  0.75061924    -0.75050
O277        O  0.02621195  0.04391391  0.74931751    -0.74980
O278        O  0.02626475  0.45623689  0.75051765    -0.74960
O279        O  0.02550166  0.99950183  0.70580060    -0.74940
O280        O  0.02691317  0.50073778  0.79399146    -0.75000
Ni281      Ni  0.47334135  0.50007420  0.75041615     1.25410
Ni282      Ni  0.02804598  0.50009885  0.74987513     1.25360
C283        C  0.00149722  0.00014296  0.80859526     0.87260
C284        C  0.99970434  0.49944635  0.69149116     0.87200
C285        C  0.50077563  0.44170788  0.75075987     0.87220
C286        C  0.50080514  0.05856559  0.75014469     0.87390
O287        O  0.02331234  0.25008828  0.79429598    -0.74920
O288        O  0.02272553  0.25057114  0.70609657    -0.74950
O289        O  0.02316954  0.29425582  0.75031750    -0.75000
O290        O  0.02284847  0.20644095  0.74996835    -0.75050
O291        O  0.47189069  0.20671015  0.75020240    -0.74980
O292        O  0.47212286  0.29440383  0.75016266    -0.74960
O293        O  0.47169524  0.25060464  0.70614403    -0.74940
O294        O  0.47226686  0.25046803  0.79416494    -0.75000
Ni295      Ni  0.02485276  0.25034176  0.75018056     1.25410
Ni296      Ni  0.47020338  0.25056596  0.75017580     1.25360
C297        C  0.49780358  0.24989126  0.80881856     0.87260
C298        C  0.49708057  0.25077983  0.69150836     0.87200
C299        C  0.49764332  0.30886668  0.75001308     0.87220
C300        C  0.49726452  0.19196325  0.74994549     0.87390
O301        O  0.22344943  0.00117290  0.79391588    -0.74920
O302        O  0.22337145  0.50030885  0.70581183    -0.74950
O303        O  0.22329639  0.45672869  0.75033118    -0.75000
O304        O  0.22349587  0.04448377  0.74938435    -0.75050
O305        O  0.27456961  0.04434063  0.74989688    -0.74980
O306        O  0.27436311  0.45637840  0.75037621    -0.74960
O307        O  0.27459403  0.99999778  0.70611947    -0.74940
O308        O  0.27465369  0.50026831  0.79414235    -0.75000
Ni309      Ni  0.22158657  0.50065570  0.74985472     1.25410
Ni310      Ni  0.27638070  0.50027804  0.75014233     1.25360
C311        C  0.24908188  0.50076697  0.80843558     0.87260
C312        C  0.24899199  0.50003758  0.69158499     0.87200
C313        C  0.24872949  0.44201067  0.75065477     0.87220
C314        C  0.24900932  0.05896058  0.74930531     0.87390
O315        O  0.27645104  0.25067069  0.79409789    -0.74920
O316        O  0.27632491  0.25013389  0.70605487    -0.74950
O317        O  0.27642663  0.29433831  0.74974713    -0.75000
O318        O  0.27630165  0.20656903  0.75044214    -0.75050
O319        O  0.22522482  0.20667466  0.75019290    -0.74980
O320        O  0.22535603  0.29462499  0.74951579    -0.74960
O321        O  0.22510258  0.25063394  0.70583296    -0.74940
O322        O  0.22522748  0.25114954  0.79388369    -0.75000
Ni323      Ni  0.27818900  0.25043166  0.75008982     1.25410
Ni324      Ni  0.22338616  0.25073298  0.74984835     1.25360
C325        C  0.25086399  0.25109351  0.80836538     0.87260
C326        C  0.25069288  0.25047977  0.69156523     0.87200
C327        C  0.25097516  0.30901766  0.74932894     0.87220
C328        C  0.25079337  0.19207016  0.75065934     0.87390
O329        O  0.00059811  0.47567308  0.95563460    -0.74920
O330        O  0.50000220  0.47399253  0.54379056    -0.74950
O331        O  0.45648643  0.47420354  0.99925072    -0.75000
O332        O  0.04417763  0.47551247  0.50008735    -0.75050
O333        O  0.04339653  0.02650972  0.00031918    -0.74980
O334        O  0.45573150  0.02516389  0.50097076    -0.74960
O335        O  0.00034651  0.02518064  0.54460487    -0.74940
O336        O  0.49910866  0.02665284  0.95656700    -0.75000
Ni337      Ni  0.50033033  0.47302091  0.99966692     1.25410
Ni338      Ni  0.49957835  0.02768552  0.50063544     1.25360
C339        C  0.50021797  0.00148449  0.94147982     0.87260
C340        C  0.50036890  0.99935303  0.55862003     0.87200
C341        C  0.44154190  0.49943940  0.00032433     0.87220
C342        C  0.05834963  0.50125857  0.00002123     0.87390
O343        O  0.49920385  0.22348234  0.95606442    -0.74920
O344        O  0.50039636  0.22344934  0.54426235    -0.74950
O345        O  0.45589586  0.22382689  0.00021316    -0.75000
O346        O  0.04365812  0.22289943  0.49982979    -0.75050
O347        O  0.04429656  0.27392090  0.00080924    -0.74980
O348        O  0.45618870  0.27495469  0.49950580    -0.74960
O349        O  0.49961213  0.27464887  0.54414170    -0.74940
O350        O  0.50093790  0.27465368  0.95611531    -0.75000
Ni351      Ni  0.49976417  0.22161333  0.00012553     1.25410
Ni352      Ni  0.50028237  0.27637836  0.50014484     1.25360
C353        C  0.50021928  0.24909527  0.94166629     0.87260
C354        C  0.49997536  0.24908899  0.55862740     0.87200
C355        C  0.44155381  0.24946284  0.99956216     0.87220
C356        C  0.05856851  0.24815985  0.00035672     0.87390
O357        O  0.25022333  0.47382773  0.95641574    -0.74920
O358        O  0.25051877  0.47564552  0.54455251    -0.74950
O359        O  0.20656338  0.47397635  0.00040955    -0.75000
O360        O  0.29426453  0.47544311  0.50044903    -0.75050
O361        O  0.29332881  0.02642857  0.99938645    -0.74980
O362        O  0.20567217  0.02491940  0.49945683    -0.74960
O363        O  0.24973453  0.02657445  0.54335545    -0.74940
O364        O  0.24929035  0.02483690  0.95534727    -0.75000
Ni365      Ni  0.25042903  0.47291205  0.00050261     1.25410
Ni366      Ni  0.24947944  0.02748148  0.49933655     1.25360
C367        C  0.24991948  0.49903103  0.94127569     0.87260
C368        C  0.24996660  0.50148141  0.55862260     0.87200
C369        C  0.19153035  0.49918503  0.00014426     0.87220
C370        C  0.30837093  0.50122445  0.99973301     0.87390
O371        O  0.29440600  0.27510518  0.00098040    -0.74920
O372        O  0.20661593  0.27523896  0.49921065    -0.74950
O373        O  0.25006538  0.27476844  0.54422150    -0.75000
O374        O  0.25107896  0.27504158  0.95582303    -0.75050
O375        O  0.25064998  0.22408776  0.95602942    -0.74980
O376        O  0.25018562  0.22381116  0.54374805    -0.74960
O377        O  0.20644944  0.22423853  0.99925230    -0.74940
O378        O  0.29447984  0.22398053  0.50031505    -0.75000
Ni379      Ni  0.25051733  0.27688120  0.00005194     1.25410
Ni380      Ni  0.25043003  0.22224671  0.99985297     1.25360
C381        C  0.30892581  0.24957242  0.00106589     0.87260
C382        C  0.19193495  0.24984080  0.99874431     0.87200
C383        C  0.25029463  0.24906678  0.55864491     0.87220
C384        C  0.25109784  0.24942861  0.94126904     0.87390
C385        C  0.39197902  0.27010677  0.51849575    -0.09650
C386        C  0.40764247  0.24954972  0.99936011     0.06550
C387        C  0.39057983  0.22894294  0.98102054    -0.03410
C388        C  0.35851512  0.22905583  0.98226772    -0.07860
C389        C  0.34283143  0.24962415  0.00137082     0.05660
C390        C  0.35988462  0.27014052  0.51982822    -0.02890
Br391      Br  0.34075999  0.29701524  0.54900005    -0.02580
H392        H  0.40478438  0.28569441  0.53308738     0.09580
H393        H  0.34573373  0.21341751  0.96770667     0.07590
Br394      Br  0.40960300  0.20154885  0.95230552    -0.03010
C395        C  0.10816187  0.27408884  0.98942327    -0.09650
C396        C  0.09269209  0.24782877  0.99987565     0.06550
C397        C  0.11032649  0.22203723  0.50901916    -0.03410
C398        C  0.14236952  0.22340348  0.50832887    -0.07860
C399        C  0.15781856  0.24978708  0.99822879     0.05660
C400        C  0.14021467  0.27518271  0.98810038    -0.02890
Br401      Br  0.15784731  0.31139360  0.97020594    -0.02580
H402        H  0.09522151  0.29382008  0.98150283     0.09580
H403        H  0.15530314  0.20359577  0.51606656     0.07590
Br404      Br  0.09291064  0.18423181  0.52348133    -0.03010
C405        C  0.39186400  0.02623849  0.99217447    -0.09650
C406        C  0.40749704  0.49923292  0.00044054     0.06550
C407        C  0.39013825  0.47306506  0.50852290    -0.03410
C408        C  0.35811771  0.47445620  0.50795395    -0.07860
C409        C  0.34244389  0.50147946  0.99965304     0.05660
C410        C  0.35984287  0.02764888  0.99161845    -0.02890
Br411      Br  0.34217144  0.06593727  0.97845107    -0.02580
H412        H  0.40463190  0.04649614  0.98564031     0.09580
H413        H  0.34539091  0.45418262  0.51451183     0.07590
Br414      Br  0.40793304  0.43493021  0.52197680    -0.03010
C415        C  0.10801531  0.47423997  0.50764614    -0.09650
C416        C  0.09240370  0.50143627  0.99990273     0.06550
C417        C  0.10983314  0.02768860  0.99226022    -0.03410
C418        C  0.14184072  0.02616901  0.99263044    -0.07860
C419        C  0.15745839  0.49897518  0.00034234     0.05660
C420        C  0.14002969  0.47271085  0.50800768    -0.02890
Br421      Br  0.15761451  0.43409840  0.52031734    -0.02580
H422        H  0.09523646  0.45388911  0.51385575     0.09580
H423        H  0.15459405  0.04653630  0.98642345     0.07590
Br424      Br  0.09221954  0.06625833  0.97985196    -0.03010
C425        C  0.25712463  0.22308545  0.64245601    -0.09650
C426        C  0.25065075  0.25040186  0.65786944     0.06550
C427        C  0.24430838  0.27711421  0.64094497    -0.03410
C428        C  0.24440170  0.27616369  0.60878127    -0.07860
C429        C  0.25059322  0.24870347  0.59289085     0.05660
C430        C  0.25706563  0.22184049  0.61031377    -0.02890
Br431      Br  0.26683372  0.18260611  0.59268951    -0.02580
H432        H  0.26214462  0.20251190  0.65557338     0.09580
H433        H  0.23946184  0.29706802  0.59622107     0.07590
Br434      Br  0.23622704  0.31550703  0.66090478    -0.03010
C435        C  0.25700852  0.22354392  0.85749716    -0.09650
C436        C  0.25095330  0.25100493  0.84205441     0.06550
C437        C  0.24522071  0.27779847  0.85893994    -0.03410
C438        C  0.24554964  0.27679792  0.89110952    -0.07860
C439        C  0.25136721  0.24920224  0.90702765     0.05660
C440        C  0.25715459  0.22223821  0.88963086    -0.02890
Br441      Br  0.26611794  0.18271978  0.90725116    -0.02580
H442        H  0.26154416  0.20290206  0.84440266     0.09580
H443        H  0.24104295  0.29775405  0.90364939     0.07590
Br444      Br  0.23759086  0.31632636  0.83892139    -0.03010
C445        C  0.24364258  0.02773094  0.64234535    -0.09650
C446        C  0.24905519  0.50016621  0.65788497     0.06550
C447        C  0.25469658  0.47331910  0.64108059    -0.03410
C448        C  0.25487012  0.47434121  0.60893323    -0.07860
C449        C  0.24964023  0.50200115  0.59288822     0.05660
C450        C  0.24399047  0.02904086  0.61018578    -0.02890
Br451      Br  0.23598941  0.06864536  0.59234908    -0.02580
H452        H  0.23926695  0.04844505  0.65537764     0.09580
H453        H  0.25922606  0.45328380  0.59651361     0.07590
Br454      Br  0.26157182  0.43466635  0.66115367    -0.03010
C455        C  0.26167853  0.47523456  0.85770498    -0.09650
C456        C  0.24921250  0.50052256  0.84218966     0.06550
C457        C  0.23734941  0.02520431  0.85911321    -0.03410
C458        C  0.23787624  0.02420746  0.89126105    -0.07860
C459        C  0.24993593  0.49868899  0.90712984     0.05660
C460        C  0.26201259  0.47395410  0.88987467    -0.02890
Br461      Br  0.28063255  0.43833529  0.90821280    -0.02580
H462        H  0.27107750  0.45628174  0.84467514     0.09580
H463        H  0.22866603  0.04351208  0.90387518     0.07590
Br464      Br  0.22170620  0.06137909  0.83925878    -0.03010
C465        C  0.22560857  0.35846339  0.76181275    -0.09650
C466        C  0.25088187  0.34302587  0.74920170     0.06550
C467        C  0.27527887  0.36050942  0.73707738    -0.03410
C468        C  0.27405025  0.39254351  0.73810144    -0.07860
C469        C  0.24879027  0.40798910  0.75074157     0.05660
C470        C  0.22438816  0.39049773  0.76285584    -0.02890
Br471      Br  0.18950843  0.40839065  0.78288759    -0.02580
H472        H  0.20682223  0.34551650  0.77155903     0.09580
H473        H  0.29283670  0.40548440  0.72834714     0.07590
Br474      Br  0.31018570  0.34259219  0.71710504    -0.03010
C475        C  0.27377227  0.10849708  0.76298076    -0.09650
C476        C  0.24908749  0.09300134  0.74912911     0.06550
C477        C  0.22503205  0.11045627  0.73589832    -0.03410
C478        C  0.22600888  0.14252197  0.73703022    -0.07860
C479        C  0.25070897  0.15802112  0.75085706     0.05660
C480        C  0.27475268  0.14056271  0.76410187    -0.02890
Br481      Br  0.30872676  0.15862898  0.78580899    -0.02580
H482        H  0.29222986  0.09557301  0.77362514     0.09580
H483        H  0.20754158  0.15544554  0.72640206     0.07590
Br484      Br  0.19104727  0.09239236  0.71418895    -0.03010
C485        C  0.47386000  0.26159581  0.60736417    -0.09650
C486        C  0.49942341  0.24932341  0.59241445     0.06550
C487        C  0.02413527  0.23804384  0.60995138    -0.03410
C488        C  0.02289111  0.23888346  0.64206655    -0.07860
C489        C  0.49709649  0.25070705  0.65735213     0.05660
C490        C  0.47232852  0.26222765  0.63951152    -0.02890
Br491      Br  0.43625277  0.28037798  0.65696032    -0.02580
H492        H  0.45488161  0.27061276  0.59390537     0.09580
H493        H  0.04222278  0.23007575  0.65512048     0.07590
Br494      Br  0.06073401  0.22285270  0.59110918    -0.03010
C495        C  0.02318051  0.26191443  0.85882469    -0.09650
C496        C  0.49800284  0.24924692  0.84292910     0.06550
C497        C  0.47386314  0.23605117  0.86009914    -0.03410
C498        C  0.47528939  0.23596306  0.89224161    -0.07860
C499        C  0.50010806  0.24915182  0.90787427     0.05660
C500        C  0.02428069  0.26210703  0.89100807    -0.02890
Br501      Br  0.05990267  0.27889949  0.91092725    -0.02580
H502        H  0.04201626  0.27195183  0.84620759     0.09580
H503        H  0.45676401  0.22574510  0.90514031     0.07590
Br504      Br  0.43890408  0.21641873  0.84159768    -0.03010
C505        C  0.47573044  0.48612300  0.60801096    -0.09650
C506        C  0.50063867  0.99888755  0.59239967     0.06550
C507        C  0.02524452  0.01130606  0.60926686    -0.03410
C508        C  0.02452972  0.01105312  0.64142739    -0.07860
C509        C  0.49931628  0.49884745  0.65735690     0.05660
C510        C  0.47469867  0.48615720  0.64019274    -0.02890
Br511      Br  0.43956347  0.46726621  0.65877240    -0.02580
H512        H  0.45681832  0.47634872  0.59505900     0.09580
H513        H  0.04372421  0.02072000  0.65400880     0.07590
Br514      Br  0.06087508  0.02760246  0.58932135    -0.03010
C515        C  0.01140829  0.02642748  0.85800975    -0.09650
C516        C  0.00178890  0.00011037  0.84233997     0.06550
C517        C  0.49203303  0.47438850  0.85908761    -0.03410
C518        C  0.49178638  0.47535969  0.89123556    -0.07860
C519        C  0.50092962  0.00188853  0.90729870     0.05660
C520        C  0.01094100  0.02768276  0.89018034    -0.02890
Br521      Br  0.02541127  0.06504101  0.90862657    -0.02580
H522        H  0.01906220  0.04624138  0.84509655     0.09580
H523        H  0.48418848  0.45524866  0.90367745     0.07590
Br524      Br  0.47994361  0.43709575  0.83896646    -0.03010
C525        C  0.02342861  0.35809617  0.76252562    -0.09650
C526        C  0.49791124  0.34285386  0.74993818     0.06550
C527        C  0.47347393  0.36051844  0.73777996    -0.03410
C528        C  0.47502248  0.39251110  0.73849457    -0.07860
C529        C  0.50054140  0.40774537  0.75102726     0.05660
C530        C  0.02490397  0.39011916  0.76336941    -0.02890
Br531      Br  0.06004462  0.40783506  0.78344523    -0.02580
H532        H  0.04221177  0.34501779  0.77237115     0.09580
H533        H  0.45622203  0.40558264  0.72866558     0.07590
Br534      Br  0.43790710  0.34300639  0.71834762    -0.03010
C535        C  0.02528746  0.14252687  0.75558286    -0.09650
C536        C  0.49741617  0.15782448  0.74988379     0.06550
C537        C  0.47082026  0.13999279  0.74437836    -0.03410
C538        C  0.47272428  0.10798092  0.74469384    -0.07860
C539        C  0.50060530  0.09269315  0.75032085     0.05660
C540        C  0.02718170  0.11051701  0.75594638    -0.02890
Br541      Br  0.06687926  0.09352037  0.76536569    -0.02580
H542        H  0.04595891  0.15553754  0.76014846     0.09580
H543        H  0.45205419  0.09495547  0.74015921     0.07590
Br544      Br  0.43104114  0.15696724  0.73534034    -0.03010
O545        O  0.47572247  0.49971065  0.29438914    -0.74920
O546        O  0.47446411  0.00019346  0.20637186    -0.74950
O547        O  0.47520024  0.95622141  0.25032224    -0.75000
O548        O  0.47526008  0.54400973  0.25062084    -0.75050
O549        O  0.02621131  0.54391410  0.24931666    -0.74980
O550        O  0.02626436  0.95623702  0.25051619    -0.74960
O551        O  0.02549911  0.49950248  0.20579937    -0.74940
O552        O  0.02691467  0.00073735  0.29399027    -0.75000
Ni553      Ni  0.47334090  0.00007428  0.25041751     1.25410
Ni554      Ni  0.02804546  0.00009900  0.24987386     1.25360
C555        C  0.00149946  0.50014197  0.30859530     0.87260
C556        C  0.99970110  0.99944737  0.19149117     0.87200
C557        C  0.50077528  0.94170803  0.25075981     0.87220
C558        C  0.50080454  0.55856574  0.25014495     0.87390
O559        O  0.02331360  0.75008560  0.29429490    -0.74920
O560        O  0.02272232  0.75057438  0.20609563    -0.74950
O561        O  0.02316847  0.79425606  0.25031904    -0.75000
O562        O  0.02284756  0.70644121  0.24996483    -0.75050
O563        O  0.47188984  0.70671024  0.25020141    -0.74980
O564        O  0.47212183  0.79440397  0.25016680    -0.74960
O565        O  0.47169210  0.75060779  0.20614550    -0.74940
O566        O  0.47226818  0.75046515  0.29416661    -0.75000
Ni567      Ni  0.02485176  0.75034202  0.25017947     1.25410
Ni568      Ni  0.47020243  0.75056608  0.25017747     1.25360
C569        C  0.49780570  0.74988704  0.30881883     0.87260
C570        C  0.49707674  0.75078454  0.19150862     0.87200
C571        C  0.49764225  0.80886687  0.25001621     0.87220
C572        C  0.49726370  0.69196342  0.24994298     0.87390
O573        O  0.22345135  0.50116788  0.29391724    -0.74920
O574        O  0.22336927  0.00031447  0.20581311    -0.74950
O575        O  0.22329615  0.95672903  0.25032783    -0.75000
O576        O  0.22349583  0.54448409  0.24939026    -0.75050
O577        O  0.27456960  0.54434092  0.24990042    -0.74980
O578        O  0.27436286  0.95637856  0.25037060    -0.74960
O579        O  0.27459187  0.50000328  0.20611838    -0.74940
O580        O  0.27465559  0.00026328  0.29414137    -0.75000
Ni581      Ni  0.22158643  0.00065603  0.24985611     1.25410
Ni582      Ni  0.27638057  0.00027827  0.25014121     1.25360
C583        C  0.24908439  0.00075964  0.30843578     0.87260
C584        C  0.24898915  0.00004542  0.19158507     0.87200
C585        C  0.24872919  0.94201091  0.25064969     0.87220
C586        C  0.24900928  0.55896086  0.24931052     0.87390
O587        O  0.27645238  0.75067084  0.29409720    -0.74920
O588        O  0.27632401  0.75013414  0.20605412    -0.74950
O589        O  0.27642693  0.79433850  0.24974624    -0.75000
O590        O  0.27630198  0.70656923  0.25044166    -0.75050
O591        O  0.22522514  0.70667484  0.25019365    -0.74980
O592        O  0.22535632  0.79462517  0.24951643    -0.74960
O593        O  0.22510168  0.75063433  0.20583370    -0.74940
O594        O  0.22522882  0.75114951  0.29388436    -0.75000
Ni595      Ni  0.27818927  0.75043186  0.25008907     1.25410
Ni596      Ni  0.22338643  0.75073316  0.24984909     1.25360
C597        C  0.25086570  0.75109321  0.30836537     0.87260
C598        C  0.25069156  0.75048043  0.19156522     0.87200
C599        C  0.25097545  0.80901784  0.24932848     0.87220
C600        C  0.25079371  0.69207038  0.25065986     0.87390
O601        O  0.00061184  0.97566419  0.45563439    -0.74920
O602        O  0.49998898  0.97400207  0.04379017    -0.74950
O603        O  0.45650056  0.97419023  0.49925047    -0.75000
O604        O  0.04416464  0.97551987  0.00008664    -0.75050
O605        O  0.04340806  0.52650233  0.50031987    -0.74980
O606        O  0.45572097  0.52517723  0.00097040    -0.74960
O607        O  0.00033582  0.52519018  0.04460471    -0.74940
O608        O  0.49911937  0.52664385  0.45656784    -0.75000
Ni609      Ni  0.50034406  0.97301117  0.49966704     1.25410
Ni610      Ni  0.49956757  0.52769530  0.00063494     1.25360
C611        C  0.50022968  0.50147599  0.44148014     0.87260
C612        C  0.50035731  0.49936241  0.05861977     0.87200
C613        C  0.44155428  0.99942485  0.50032426     0.87220
C614        C  0.05836191  0.00125138  0.50002265     0.87390
O615        O  0.49921458  0.72346581  0.45606431    -0.74920
O616        O  0.50038609  0.72346620  0.04426213    -0.74950
O617        O  0.45590605  0.72380885  0.50021296    -0.75000
O618        O  0.04364715  0.72291413  0.99982939    -0.75050
O619        O  0.04430504  0.77390627  0.50080964    -0.74980
O620        O  0.45617949  0.77497272  0.99950561    -0.74960
O621        O  0.49960351  0.77466576  0.04414166    -0.74940
O622        O  0.50094668  0.77463721  0.45611567    -0.75000
Ni623      Ni  0.49977484  0.72159663  0.50012557     1.25410
Ni624      Ni  0.50027363  0.77639503  0.00014463     1.25360
C625        C  0.50022877  0.74907895  0.44166642     0.87260
C626        C  0.49996628  0.74910579  0.05862727     0.87200
C627        C  0.44156352  0.74944466  0.49956240     0.87220
C628        C  0.05857823  0.74814602  0.50035733     0.87390
O629        O  0.25023371  0.97380656  0.45641537    -0.74920
O630        O  0.25050779  0.97566629  0.04455195    -0.74950
O631        O  0.20657385  0.97395865  0.50041004    -0.75000
O632        O  0.29425294  0.97546678  0.00044939    -0.75050
O633        O  0.29334199  0.52640490  0.49938573    -0.74980
O634        O  0.20565816  0.52493704  0.99945623    -0.74960
O635        O  0.24972037  0.52659521  0.04335603    -0.74940
O636        O  0.24930313  0.52481583  0.45534765    -0.75000
Ni637      Ni  0.25043986  0.97289097  0.50050272     1.25410
Ni638      Ni  0.24946566  0.52750251  0.99933663     1.25360
C639        C  0.24993003  0.99901018  0.44127569     0.87260
C640        C  0.24995488  0.00150174  0.05862266     0.87200
C641        C  0.19154257  0.99916853  0.50014516     0.87220
C642        C  0.30838330  0.00120043  0.49973184     0.87390
O643        O  0.29441646  0.77509821  0.50097973    -0.74920
O644        O  0.20660642  0.77524363  0.99920997    -0.74950
O645        O  0.25005507  0.77477334  0.04422174    -0.75000
O646        O  0.25108807  0.77503664  0.45582324    -0.75050
O647        O  0.25065787  0.72408283  0.45602915    -0.74980
O648        O  0.25017608  0.72381608  0.04374778    -0.74960
O649        O  0.20645888  0.72423381  0.49925332    -0.74940
O650        O  0.29447133  0.72398748  0.00031597    -0.75000
Ni651      Ni  0.25052734  0.77687588  0.50005193     1.25410
Ni652      Ni  0.25043891  0.72224139  0.49985297     1.25360
C653        C  0.30893533  0.74956475  0.50106480     0.87260
C654        C  0.19194444  0.74983598  0.49874575     0.87200
C655        C  0.25028530  0.74907145  0.05864488     0.87220
C656        C  0.25110558  0.74942391  0.44126899     0.87390
C657        C  0.39196788  0.77012236  0.01849543    -0.09650
C658        C  0.40765217  0.74953223  0.49936120     0.06550
C659        C  0.39058806  0.72892680  0.48102159    -0.03410
C660        C  0.35852323  0.72904343  0.48226754    -0.07860
C661        C  0.34284101  0.74961408  0.50136955     0.05660
C662        C  0.35987347  0.77015245  0.01982903    -0.02890
Br663      Br  0.34074672  0.79702479  0.04900173    -0.02580
H664        H  0.40477215  0.78571093  0.03308713     0.09580
H665        H  0.34574070  0.71340610  0.46770658     0.07590
Br666      Br  0.40960941  0.70152988  0.45230802    -0.03010
C667        C  0.10816982  0.77407857  0.48942424    -0.09650
C668        C  0.09270180  0.74781747  0.49987689     0.06550
C669        C  0.11031506  0.72204659  0.00901616    -0.03410
C670        C  0.14235827  0.72341028  0.00832526    -0.07860
C671        C  0.15782809  0.74978101  0.49823148     0.05660
C672        C  0.14022257  0.77517512  0.48810229    -0.02890
Br673      Br  0.15785310  0.81138718  0.47020826    -0.02580
H674        H  0.09522797  0.79380881  0.48150286     0.09580
H675        H  0.15529047  0.70360158  0.01606190     0.07590
Br676      Br  0.09289665  0.68424166  0.02347661    -0.03010
C677        C  0.39187454  0.52621848  0.49217080    -0.09650
C678        C  0.40750949  0.99921514  0.50043967     0.06550
C679        C  0.39012386  0.97308405  0.00852278    -0.03410
C680        C  0.35810358  0.97447790  0.00795463    -0.07860
C681        C  0.34245622  0.00145604  0.49965047     0.05660
C682        C  0.35985350  0.52762605  0.49161356    -0.02890
Br683      Br  0.34217987  0.56591154  0.47844064    -0.02580
H684        H  0.40464117  0.54647692  0.48563501     0.09580
H685        H  0.34537577  0.95420502  0.01451119     0.07590
Br686      Br  0.40791532  0.93494687  0.02197415    -0.03010
C687        C  0.10800473  0.97424906  0.00764296    -0.09650
C688        C  0.09241604  0.00142826  0.49990587     0.06550
C689        C  0.10984725  0.52767954  0.49226412    -0.03410
C690        C  0.14185484  0.52615725  0.49263341    -0.07860
C691        C  0.15747059  0.99896184  0.50034431     0.05660
C692        C  0.14001935  0.97272252  0.00800495    -0.02890
Br693      Br  0.15760713  0.93411119  0.02031399    -0.02580
H694        H  0.09522712  0.95389736  0.01385244     0.09580
H695        H  0.15460965  0.54652365  0.48642660     0.07590
Br696      Br  0.09223584  0.56625108  0.47985863    -0.03010
C697        C  0.25712196  0.72308796  0.14245478    -0.09650
C698        C  0.25064824  0.75040369  0.15786943     0.06550
C699        C  0.24430404  0.77711638  0.14094614    -0.03410
C700        C  0.24439496  0.77616681  0.10878239    -0.07860
C701        C  0.25058600  0.74870724  0.09289078     0.05660
C702        C  0.25706075  0.72184396  0.11031251    -0.02890
Br703      Br  0.26682944  0.68261040  0.09268661    -0.02580
H704        H  0.26214344  0.70251418  0.15557122     0.09580
H705        H  0.23945369  0.79707136  0.09622309     0.07590
Br706      Br  0.23622353  0.81550850  0.16090756    -0.03010
C707        C  0.25701102  0.72354169  0.35749595    -0.09650
C708        C  0.25095591  0.75100343  0.34205438     0.06550
C709        C  0.24522447  0.77779647  0.35894105    -0.03410
C710        C  0.24555502  0.77679482  0.39111058    -0.07860
C711        C  0.25137292  0.74919847  0.40702755     0.05660
C712        C  0.25715850  0.72223487  0.38962961    -0.02890
Br713      Br  0.26612109  0.68271565  0.40724834    -0.02580
H714        H  0.26154554  0.70290017  0.34440053     0.09580
H715        H  0.24104935  0.79775064  0.40365134     0.07590
Br716      Br  0.23759387  0.81632506  0.33892403    -0.03010
C717        C  0.24363842  0.52774484  0.14234845    -0.09650
C718        C  0.24905079  0.00017824  0.15788506     0.06550
C719        C  0.25469035  0.97333272  0.14107772    -0.03410
C720        C  0.25486149  0.97435790  0.10893058    -0.07860
C721        C  0.24963119  0.00201944  0.09288840     0.05660
C722        C  0.24398432  0.52905788  0.11018883    -0.02890
Br723      Br  0.23598567  0.56866453  0.09235595    -0.02580
H724        H  0.23926464  0.54845787  0.15538308     0.09580
H725        H  0.25921588  0.95330139  0.09650890     0.07590
Br726      Br  0.26156663  0.93467790  0.16114643    -0.03010
C727        C  0.26168242  0.97522035  0.35770177    -0.09650
C728        C  0.24921634  0.00051054  0.34218984     0.06550
C729        C  0.23735413  0.52519030  0.35911673    -0.03410
C730        C  0.23788278  0.52418995  0.39126429    -0.07860
C731        C  0.24994329  0.99866986  0.40712981     0.05660
C732        C  0.26201798  0.97393629  0.38987146    -0.02890
Br733      Br  0.28063685  0.93831481  0.40820536    -0.02580
H734        H  0.27108027  0.95626878  0.34466933     0.09580
H735        H  0.22867350  0.54349344  0.40388084     0.07590
Br736      Br  0.22170963  0.56136728  0.33926743    -0.03010
C737        C  0.22560909  0.85846390  0.26181114    -0.09650
C738        C  0.25088210  0.84302605  0.24920000     0.06550
C739        C  0.27527850  0.86050928  0.23707393    -0.03410
C740        C  0.27404942  0.89254344  0.23809612    -0.07860
C741        C  0.24878976  0.90798934  0.25073647     0.05660
C742        C  0.22438836  0.89049826  0.26285269    -0.02890
Br743      Br  0.18950942  0.90839158  0.28288550    -0.02580
H744        H  0.20682328  0.84551728  0.27155880     0.09580
H745        H  0.29283542  0.90548410  0.22834065     0.07590
Br746      Br  0.31018533  0.84259141  0.21710217    -0.03010
C747        C  0.27377208  0.60849771  0.26298530    -0.09650
C748        C  0.24908734  0.59300157  0.24913410     0.06550
C749        C  0.22503233  0.61045607  0.23590192    -0.03410
C750        C  0.22600931  0.64252179  0.23703239    -0.07860
C751        C  0.25070932  0.65802136  0.25085880     0.05660
C752        C  0.27475279  0.64056341  0.26410472    -0.02890
Br753      Br  0.30872702  0.65863054  0.28581084    -0.02580
H754        H  0.29222951  0.59557393  0.27363032     0.09580
H755        H  0.20754229  0.65544501  0.22640330     0.07590
Br756      Br  0.19104831  0.59239140  0.21419193    -0.03010
C757        C  0.47385304  0.76160984  0.10736624    -0.09650
C758        C  0.49941617  0.74933950  0.09241437     0.06550
C759        C  0.02412890  0.73805878  0.10994926    -0.03410
C760        C  0.02288577  0.73889474  0.14206453    -0.07860
C761        C  0.49709130  0.75071567  0.15735232     0.05660
C762        C  0.47232255  0.76223790  0.13951378    -0.02890
Br763      Br  0.43624668  0.78038475  0.15696586    -0.02580
H764        H  0.45487383  0.77062747  0.09390899     0.09580
H765        H  0.04221815  0.73008601  0.15511680     0.07590
Br766      Br  0.06072722  0.72287028  0.09110411    -0.03010
C767        C  0.02318548  0.76190504  0.35882467    -0.09650
C768        C  0.49800696  0.74923892  0.34292931     0.06550
C769        C  0.47386885  0.73604046  0.36009941    -0.03410
C770        C  0.47529723  0.73594854  0.39224192    -0.07860
C771        C  0.50011662  0.74913641  0.40787438     0.05660
C772        C  0.02428771  0.76209403  0.39100805    -0.02890
Br773      Br  0.05991026  0.77888581  0.41092679    -0.02580
H774        H  0.04201966  0.77194408  0.34620781     0.09580
H775        H  0.45677345  0.72572937  0.40514027     0.07590
Br776      Br  0.43890876  0.71640989  0.34159788    -0.03010
C777        C  0.47572149  0.98613015  0.10801158    -0.09650
C778        C  0.50062862  0.49889593  0.09239944     0.06550
C779        C  0.02523632  0.51131179  0.10926585    -0.03410
C780        C  0.02452384  0.51105631  0.14142646    -0.07860
C781        C  0.49931126  0.99884999  0.15735686     0.05660
C782        C  0.47469234  0.98616126  0.14019348    -0.02890
Br783      Br  0.43955917  0.96726762  0.15877432    -0.02580
H784        H  0.45680841  0.97635691  0.09506024     0.09580
H785        H  0.04371954  0.52072161  0.15400724     0.07590
Br786      Br  0.06086665  0.52760698  0.08931898    -0.03010
C787        C  0.01141243  0.52642426  0.35801059    -0.09650
C788        C  0.00179292  0.50010769  0.34234002     0.06550
C789        C  0.49203945  0.97438440  0.35908696    -0.03410
C790        C  0.49179585  0.97535341  0.39123503    -0.07860
C791        C  0.50093942  0.50188160  0.40729899     0.05660
C792        C  0.01094778  0.52767754  0.39018129    -0.02890
Br793      Br  0.02541695  0.56503587  0.40862834    -0.02580
H794        H  0.01906435  0.54623929  0.34509794     0.09580
H795        H  0.48419976  0.95524137  0.40367639     0.07590
Br796      Br  0.47994872  0.93709279  0.33896455    -0.03010
C797        C  0.02342797  0.85809650  0.26252745    -0.09650
C798        C  0.49791013  0.84285405  0.24994122     0.06550
C799        C  0.47347268  0.86051849  0.23778309    -0.03410
C800        C  0.47502158  0.89251113  0.23849654    -0.07860
C801        C  0.50054099  0.90774555  0.25102796     0.05660
C802        C  0.02490366  0.89011951  0.26337010    -0.02890
Br803      Br  0.06004495  0.90783579  0.28344443    -0.02580
H804        H  0.04221131  0.84501822  0.27237277     0.09580
H805        H  0.45622098  0.90558253  0.22866765     0.07590
Br806      Br  0.43790512  0.84300631  0.21835231    -0.03010
C807        C  0.02528680  0.64252717  0.25558067    -0.09650
C808        C  0.49741549  0.65782464  0.24988142     0.06550
C809        C  0.47081950  0.63999280  0.24437694    -0.03410
C810        C  0.47272351  0.60798093  0.24469334    -0.07860
C811        C  0.50060459  0.59269331  0.25032051     0.05660
C812        C  0.02718100  0.61051731  0.25594529    -0.02890
Br813      Br  0.06687844  0.59352083  0.26536535    -0.02580
H814        H  0.04595826  0.65553797  0.26014582     0.09580
H815        H  0.45205339  0.59495534  0.24015929     0.07590
Br816      Br  0.43104027  0.65696710  0.23533920    -0.03010
O817        O  0.47572090  0.49971111  0.79438785    -0.74920
O818        O  0.47446660  0.00019286  0.70637057    -0.74950
O819        O  0.47520062  0.95622128  0.75032129    -0.75000
O820        O  0.47526063  0.54400964  0.75061925    -0.75050
O821        O  0.02621195  0.54391391  0.74931752    -0.74980
O822        O  0.02626475  0.95623689  0.75051766    -0.74960
O823        O  0.02550166  0.49950184  0.70580060    -0.74940
O824        O  0.02691317  0.00073779  0.79399146    -0.75000
Ni825      Ni  0.47334136  0.00007419  0.75041615     1.25410
Ni826      Ni  0.02804598  0.00009885  0.74987513     1.25360
C827        C  0.00149722  0.50014295  0.80859526     0.87260
C828        C  0.99970433  0.99944634  0.69149116     0.87200
C829        C  0.50077564  0.94170788  0.75075988     0.87220
C830        C  0.50080516  0.55856559  0.75014470     0.87390
O831        O  0.02331234  0.75008829  0.79429598    -0.74920
O832        O  0.02272553  0.75057114  0.70609657    -0.74950
O833        O  0.02316955  0.79425582  0.75031750    -0.75000
O834        O  0.02284847  0.70644096  0.74996836    -0.75050
O835        O  0.47189072  0.70671016  0.75020241    -0.74980
O836        O  0.47212289  0.79440384  0.75016265    -0.74960
O837        O  0.47169527  0.75060463  0.70614403    -0.74940
O838        O  0.47226690  0.75046804  0.79416494    -0.75000
Ni839      Ni  0.02485276  0.75034176  0.75018056     1.25410
Ni840      Ni  0.47020341  0.75056597  0.75017580     1.25360
C841        C  0.49780362  0.74989127  0.80881856     0.87260
C842        C  0.49708059  0.75077982  0.69150836     0.87200
C843        C  0.49764335  0.80886668  0.75001307     0.87220
C844        C  0.49726454  0.69196325  0.74994550     0.87390
O845        O  0.22344944  0.50117289  0.79391588    -0.74920
O846        O  0.22337144  0.00030884  0.70581184    -0.74950
O847        O  0.22329638  0.95672869  0.75033119    -0.75000
O848        O  0.22349589  0.54448377  0.74938435    -0.75050
O849        O  0.27456962  0.54434063  0.74989689    -0.74980
O850        O  0.27436310  0.95637840  0.75037621    -0.74960
O851        O  0.27459404  0.49999778  0.70611947    -0.74940
O852        O  0.27465368  0.00026831  0.79414235    -0.75000
Ni853      Ni  0.22158655  0.00065570  0.74985472     1.25410
Ni854      Ni  0.27638069  0.00027804  0.75014233     1.25360
C855        C  0.24908187  0.00076698  0.80843558     0.87260
C856        C  0.24899197  0.00003758  0.69158499     0.87200
C857        C  0.24872948  0.94201067  0.75065477     0.87220
C858        C  0.24900934  0.55896058  0.74930531     0.87390
O859        O  0.27645105  0.75067070  0.79409789    -0.74920
O860        O  0.27632491  0.75013389  0.70605487    -0.74950
O861        O  0.27642663  0.79433831  0.74974712    -0.75000
O862        O  0.27630165  0.70656903  0.75044214    -0.75050
O863        O  0.22522482  0.70667466  0.75019291    -0.74980
O864        O  0.22535602  0.79462499  0.74951579    -0.74960
O865        O  0.22510258  0.75063393  0.70583296    -0.74940
O866        O  0.22522749  0.75114954  0.79388369    -0.75000
Ni867      Ni  0.27818900  0.75043167  0.75008981     1.25410
Ni868      Ni  0.22338616  0.75073298  0.74984835     1.25360
C869        C  0.25086400  0.75109351  0.80836538     0.87260
C870        C  0.25069288  0.75047977  0.69156522     0.87200
C871        C  0.25097516  0.80901766  0.74932894     0.87220
C872        C  0.25079338  0.69207016  0.75065935     0.87390
O873        O  0.00059811  0.97567310  0.95563460    -0.74920
O874        O  0.50000219  0.97399249  0.54379056    -0.74950
O875        O  0.45648643  0.97420354  0.99925072    -0.75000
O876        O  0.04417762  0.97551243  0.50008734    -0.75050
O877        O  0.04339652  0.52650972  0.00031917    -0.74980
O878        O  0.45573151  0.52516392  0.50097075    -0.74960
O879        O  0.00034652  0.52518068  0.54460486    -0.74940
O880        O  0.49910866  0.52665283  0.95656700    -0.75000
Ni881      Ni  0.50033033  0.97302091  0.99966692     1.25410
Ni882      Ni  0.49957837  0.52768556  0.50063544     1.25360
C883        C  0.50021796  0.50148448  0.94147982     0.87260
C884        C  0.50036891  0.49935307  0.55862003     0.87200
C885        C  0.44154190  0.99943941  0.00032433     0.87220
C886        C  0.05834964  0.00125858  0.00002123     0.87390
O887        O  0.49920387  0.72348237  0.95606441    -0.74920
O888        O  0.50039636  0.72344933  0.54426234    -0.74950
O889        O  0.45589588  0.72382691  0.00021315    -0.75000
O890        O  0.04365812  0.72289943  0.49982979    -0.75050
O891        O  0.04429658  0.77392090  0.00080924    -0.74980
O892        O  0.45618870  0.77495468  0.49950581    -0.74960
O893        O  0.49961214  0.77464886  0.54414170    -0.74940
O894        O  0.50093793  0.77465370  0.95611532    -0.75000
Ni895      Ni  0.49976418  0.72161334  0.00012552     1.25410
Ni896      Ni  0.50028237  0.77637835  0.50014485     1.25360
C897        C  0.50021931  0.74909530  0.94166630     0.87260
C898        C  0.49997536  0.74908897  0.55862740     0.87200
C899        C  0.44155383  0.74946286  0.99956215     0.87220
C900        C  0.05856852  0.74815985  0.00035672     0.87390
O901        O  0.25022333  0.97382775  0.95641574    -0.74920
O902        O  0.25051876  0.97564550  0.54455251    -0.74950
O903        O  0.20656338  0.97397637  0.00040955    -0.75000
O904        O  0.29426452  0.97544309  0.50044903    -0.75050
O905        O  0.29332880  0.52642855  0.99938645    -0.74980
O906        O  0.20567218  0.52491943  0.49945683    -0.74960
O907        O  0.24973453  0.52657447  0.54335545    -0.74940
O908        O  0.24929035  0.52483688  0.95534727    -0.75000
Ni909      Ni  0.25042903  0.97291206  0.00050261     1.25410
Ni910      Ni  0.24947946  0.52748150  0.49933655     1.25360
C911        C  0.24991948  0.99903105  0.94127569     0.87260
C912        C  0.24996659  0.00148139  0.55862260     0.87200
C913        C  0.19153035  0.99918504  0.00014426     0.87220
C914        C  0.30837093  0.00122446  0.99973301     0.87390
O915        O  0.29440601  0.77510518  0.00098041    -0.74920
O916        O  0.20661593  0.77523895  0.49921065    -0.74950
O917        O  0.25006538  0.77476843  0.54422150    -0.75000
O918        O  0.25107898  0.77504157  0.95582303    -0.75050
O919        O  0.25065000  0.72408776  0.95602942    -0.74980
O920        O  0.25018562  0.72381115  0.54374805    -0.74960
O921        O  0.20644946  0.72423851  0.99925230    -0.74940
O922        O  0.29447984  0.72398052  0.50031505    -0.75000
Ni923      Ni  0.25051734  0.77688119  0.00005194     1.25410
Ni924      Ni  0.25043005  0.72224670  0.99985297     1.25360
C925        C  0.30892583  0.74957242  0.00106589     0.87260
C926        C  0.19193497  0.74984078  0.99874431     0.87200
C927        C  0.25029463  0.74906677  0.55864491     0.87220
C928        C  0.25109786  0.74942861  0.94126904     0.87390
C929        C  0.39197902  0.77010677  0.51849575    -0.09650
C930        C  0.40764249  0.74954974  0.99936010     0.06550
C931        C  0.39057985  0.72894297  0.98102052    -0.03410
C932        C  0.35851514  0.72905585  0.98226770    -0.07860
C933        C  0.34283144  0.74962415  0.00137081     0.05660
C934        C  0.35988462  0.77014051  0.51982822    -0.02890
Br935      Br  0.34076000  0.79701523  0.54900005    -0.02580
H936        H  0.40478438  0.78569440  0.53308737     0.09580
H937        H  0.34573375  0.71341753  0.96770665     0.07590
Br938      Br  0.40960302  0.70154889  0.95230548    -0.03010
C939        C  0.10816189  0.77408883  0.98942327    -0.09650
C940        C  0.09269211  0.74782876  0.99987564     0.06550
C941        C  0.11032650  0.72203722  0.50901916    -0.03410
C942        C  0.14236952  0.72340348  0.50832886    -0.07860
C943        C  0.15781857  0.74978706  0.99822878     0.05660
C944        C  0.14021469  0.77518269  0.98810037    -0.02890
Br945      Br  0.15784733  0.81139358  0.97020593    -0.02580
H946        H  0.09522153  0.79382007  0.98150283     0.09580
H947        H  0.15530314  0.70359576  0.51606656     0.07590
Br948      Br  0.09291065  0.68423180  0.52348132    -0.03010
C949        C  0.39186400  0.52623848  0.99217446    -0.09650
C950        C  0.40749704  0.99923293  0.00044054     0.06550
C951        C  0.39013824  0.97306503  0.50852291    -0.03410
C952        C  0.35811770  0.97445617  0.50795396    -0.07860
C953        C  0.34244389  0.00147948  0.99965305     0.05660
C954        C  0.35984287  0.52764887  0.99161843    -0.02890
Br955      Br  0.34217144  0.56593724  0.97845104    -0.02580
H956        H  0.40463189  0.54649612  0.98564028     0.09580
H957        H  0.34539090  0.95418260  0.51451185     0.07590
Br958      Br  0.40793302  0.93493019  0.52197683    -0.03010
C959        C  0.10801530  0.97423994  0.50764616    -0.09650
C960        C  0.09240370  0.00143628  0.99990273     0.06550
C961        C  0.10983314  0.52768859  0.99226023    -0.03410
C962        C  0.14184072  0.52616900  0.99263045    -0.07860
C963        C  0.15745839  0.99897520  0.00034235     0.05660
C964        C  0.14002968  0.97271082  0.50800771    -0.02890
Br965      Br  0.15761450  0.93409838  0.52031739    -0.02580
H966        H  0.09523645  0.95388908  0.51385578     0.09580
H967        H  0.15459405  0.54653630  0.98642348     0.07590
Br968      Br  0.09221955  0.56625834  0.97985199    -0.03010
C969        C  0.25712464  0.72308544  0.64245601    -0.09650
C970        C  0.25065075  0.75040185  0.65786944     0.06550
C971        C  0.24430838  0.77711420  0.64094497    -0.03410
C972        C  0.24440169  0.77616368  0.60878127    -0.07860
C973        C  0.25059322  0.74870346  0.59289085     0.05660
C974        C  0.25706563  0.72184048  0.61031377    -0.02890
Br975      Br  0.26683373  0.68260610  0.59268951    -0.02580
H976        H  0.26214463  0.70251189  0.65557338     0.09580
H977        H  0.23946183  0.79706801  0.59622107     0.07590
Br978      Br  0.23622702  0.81550702  0.66090478    -0.03010
C979        C  0.25700852  0.72354392  0.85749716    -0.09650
C980        C  0.25095331  0.75100493  0.84205441     0.06550
C981        C  0.24522073  0.77779847  0.85893995    -0.03410
C982        C  0.24554966  0.77679792  0.89110952    -0.07860
C983        C  0.25136722  0.74920224  0.90702765     0.05660
C984        C  0.25715459  0.72223820  0.88963085    -0.02890
Br985      Br  0.26611792  0.68271977  0.90725115    -0.02580
H986        H  0.26154415  0.70290206  0.84440265     0.09580
H987        H  0.24104298  0.79775405  0.90364939     0.07590
Br988      Br  0.23759089  0.81632637  0.83892140    -0.03010
C989        C  0.24364258  0.52773095  0.64234536    -0.09650
C990        C  0.24905518  0.00016620  0.65788497     0.06550
C991        C  0.25469656  0.97331908  0.64108059    -0.03410
C992        C  0.25487010  0.97434119  0.60893323    -0.07860
C993        C  0.24964022  0.00200114  0.59288822     0.05660
C994        C  0.24399048  0.52904088  0.61018579    -0.02890
Br995      Br  0.23598940  0.56864537  0.59234909    -0.02580
H996        H  0.23926695  0.54844506  0.65537764     0.09580
H997        H  0.25922603  0.95328378  0.59651361     0.07590
Br998      Br  0.26157179  0.93466634  0.66115368    -0.03010
C999        C  0.26167854  0.97523458  0.85770498    -0.09650
C1000       C  0.24921249  0.00052257  0.84218966     0.06550
C1001       C  0.23734943  0.52520431  0.85911321    -0.03410
C1002       C  0.23787626  0.52420745  0.89126105    -0.07860
C1003       C  0.24993593  0.99868900  0.90712985     0.05660
C1004       C  0.26201261  0.97395412  0.88987467    -0.02890
Br1005     Br  0.28063260  0.93833533  0.90821281    -0.02580
H1006       H  0.27107752  0.95628177  0.84467515     0.09580
H1007       H  0.22866606  0.54351207  0.90387518     0.07590
Br1008     Br  0.22170625  0.56137910  0.83925878    -0.03010
C1009       C  0.22560856  0.85846338  0.76181274    -0.09650
C1010       C  0.25088186  0.84302587  0.74920170     0.06550
C1011       C  0.27527886  0.86050942  0.73707738    -0.03410
C1012       C  0.27405025  0.89254352  0.73810144    -0.07860
C1013       C  0.24879027  0.90798910  0.75074157     0.05660
C1014       C  0.22438815  0.89049773  0.76285584    -0.02890
Br1015     Br  0.18950841  0.90839064  0.78288758    -0.02580
H1016       H  0.20682222  0.84551650  0.77155902     0.09580
H1017       H  0.29283669  0.90548441  0.72834714     0.07590
Br1018     Br  0.31018569  0.84259220  0.71710504    -0.03010
C1019       C  0.27377228  0.60849708  0.76298077    -0.09650
C1020       C  0.24908750  0.59300134  0.74912912     0.06550
C1021       C  0.22503207  0.61045627  0.73589832    -0.03410
C1022       C  0.22600889  0.64252197  0.73703023    -0.07860
C1023       C  0.25070898  0.65802111  0.75085706     0.05660
C1024       C  0.27475269  0.64056271  0.76410187    -0.02890
Br1025     Br  0.30872678  0.65862898  0.78580899    -0.02580
H1026       H  0.29222988  0.59557301  0.77362514     0.09580
H1027       H  0.20754159  0.65544554  0.72640207     0.07590
Br1028     Br  0.19104728  0.59239236  0.71418896    -0.03010
C1029       C  0.47386002  0.76159581  0.60736418    -0.09650
C1030       C  0.49942342  0.74932339  0.59241445     0.06550
C1031       C  0.02413526  0.73804379  0.60995138    -0.03410
C1032       C  0.02289110  0.73888341  0.64206655    -0.07860
C1033       C  0.49709651  0.75070703  0.65735213     0.05660
C1034       C  0.47232854  0.76222765  0.63951152    -0.02890
Br1035     Br  0.43625281  0.78037800  0.65696033    -0.02580
H1036       H  0.45488164  0.77061277  0.59390538     0.09580
H1037       H  0.04222276  0.73007568  0.65512049     0.07590
Br1038     Br  0.06073399  0.72285261  0.59110919    -0.03010
C1039       C  0.02318052  0.76191445  0.85882469    -0.09650
C1040       C  0.49800287  0.74924694  0.84292910     0.06550
C1041       C  0.47386317  0.73605120  0.86009915    -0.03410
C1042       C  0.47528942  0.73596310  0.89224161    -0.07860
C1043       C  0.50010809  0.74915185  0.90787427     0.05660
C1044       C  0.02428069  0.76210706  0.89100807    -0.02890
Br1045     Br  0.05990268  0.77889951  0.91092725    -0.02580
H1046       H  0.04201627  0.77195184  0.84620759     0.09580
H1047       H  0.45676404  0.72574514  0.90514031     0.07590
Br1048     Br  0.43890410  0.71641877  0.84159768    -0.03010
C1049       C  0.47573044  0.98612296  0.60801097    -0.09650
C1050       C  0.50063868  0.49888759  0.59239967     0.06550
C1051       C  0.02524453  0.51130611  0.60926687    -0.03410
C1052       C  0.02452972  0.51105315  0.64142740    -0.07860
C1053       C  0.49931628  0.99884742  0.65735690     0.05660
C1054       C  0.47469867  0.98615717  0.64019275    -0.02890
Br1055     Br  0.43956347  0.96726618  0.65877241    -0.02580
H1056       H  0.45681831  0.97634868  0.59505901     0.09580
H1057       H  0.04372420  0.52072004  0.65400880     0.07590
Br1058     Br  0.06087508  0.52760252  0.58932136    -0.03010
C1059       C  0.01140829  0.52642747  0.85800975    -0.09650
C1060       C  0.00178890  0.50011036  0.84233997     0.06550
C1061       C  0.49203303  0.97438851  0.85908762    -0.03410
C1062       C  0.49178638  0.97535970  0.89123556    -0.07860
C1063       C  0.50092962  0.50188852  0.90729870     0.05660
C1064       C  0.01094100  0.52768275  0.89018034    -0.02890
Br1065     Br  0.02541127  0.56504100  0.90862657    -0.02580
H1066       H  0.01906220  0.54624137  0.84509655     0.09580
H1067       H  0.48418848  0.95524868  0.90367745     0.07590
Br1068     Br  0.47994361  0.93709577  0.83896647    -0.03010
C1069       C  0.02342862  0.85809617  0.76252562    -0.09650
C1070       C  0.49791127  0.84285386  0.74993817     0.06550
C1071       C  0.47347397  0.86051844  0.73777994    -0.03410
C1072       C  0.47502251  0.89251110  0.73849456    -0.07860
C1073       C  0.50054143  0.90774537  0.75102726     0.05660
C1074       C  0.02490397  0.89011916  0.76336941    -0.02890
Br1075     Br  0.06004463  0.90783506  0.78344524    -0.02580
H1076       H  0.04221178  0.84501779  0.77237114     0.09580
H1077       H  0.45622207  0.90558263  0.72866556     0.07590
Br1078     Br  0.43790715  0.84300639  0.71834759    -0.03010
C1079       C  0.02528746  0.64252687  0.75558287    -0.09650
C1080       C  0.49741619  0.65782448  0.74988381     0.06550
C1081       C  0.47082028  0.63999279  0.74437837    -0.03410
C1082       C  0.47272429  0.60798093  0.74469386    -0.07860
C1083       C  0.50060531  0.59269315  0.75032086     0.05660
C1084       C  0.02718170  0.61051701  0.75594640    -0.02890
Br1085     Br  0.06687926  0.59352037  0.76536570    -0.02580
H1086       H  0.04595891  0.65553754  0.76014847     0.09580
H1087       H  0.45205420  0.59495548  0.74015922     0.07590
Br1088     Br  0.43104116  0.65696725  0.73534036    -0.03010
O1089       O  0.97572244  0.99971065  0.29438913    -0.74920
O1090       O  0.97446410  0.50019346  0.20637185    -0.74950
O1091       O  0.97520023  0.45622141  0.25032224    -0.75000
O1092       O  0.97526006  0.04400973  0.25062083    -0.75050
O1093       O  0.52621132  0.04391410  0.24931666    -0.74980
O1094       O  0.52626439  0.45623702  0.25051618    -0.74960
O1095       O  0.52549912  0.99950248  0.20579937    -0.74940
O1096       O  0.52691470  0.50073735  0.29399027    -0.75000
Ni1097     Ni  0.97334089  0.50007428  0.25041750     1.25410
Ni1098     Ni  0.52804549  0.50009900  0.24987385     1.25360
C1099       C  0.50149946  0.00014197  0.30859531     0.87260
C1100       C  0.49970111  0.49944737  0.19149117     0.87200
C1101       C  0.00077526  0.44170803  0.25075981     0.87220
C1102       C  0.00080451  0.05856574  0.25014495     0.87390
O1103       O  0.52331363  0.25008559  0.29429490    -0.74920
O1104       O  0.52272233  0.25057439  0.20609562    -0.74950
O1105       O  0.52316850  0.29425606  0.25031903    -0.75000
O1106       O  0.52284757  0.20644121  0.24996482    -0.75050
O1107       O  0.97188982  0.20671023  0.25020141    -0.74980
O1108       O  0.97212181  0.29440397  0.25016681    -0.74960
O1109       O  0.97169207  0.25060779  0.20614550    -0.74940
O1110       O  0.97226816  0.25046514  0.29416662    -0.75000
Ni1111     Ni  0.52485178  0.25034202  0.25017946     1.25410
Ni1112     Ni  0.97020241  0.25056608  0.25017747     1.25360
C1113       C  0.99780568  0.24988703  0.30881883     0.87260
C1114       C  0.99707671  0.25078454  0.19150863     0.87200
C1115       C  0.99764223  0.30886687  0.25001622     0.87220
C1116       C  0.99726368  0.19196342  0.24994298     0.87390
O1117       O  0.72345137  0.00116788  0.29391724    -0.74920
O1118       O  0.72336927  0.50031447  0.20581311    -0.74950
O1119       O  0.72329616  0.45672903  0.25032783    -0.75000
O1120       O  0.72349583  0.04448409  0.24939026    -0.75050
O1121       O  0.77456960  0.04434093  0.24990041    -0.74980
O1122       O  0.77436287  0.45637857  0.25037060    -0.74960
O1123       O  0.77459187  0.00000329  0.20611838    -0.74940
O1124       O  0.77465560  0.50026329  0.29414137    -0.75000
Ni1125     Ni  0.72158644  0.50065603  0.24985612     1.25410
Ni1126     Ni  0.77638058  0.50027827  0.25014121     1.25360
C1127       C  0.74908441  0.50075966  0.30843578     0.87260
C1128       C  0.74898915  0.50004541  0.19158507     0.87200
C1129       C  0.74872920  0.44201091  0.25064969     0.87220
C1130       C  0.74900928  0.05896087  0.24931052     0.87390
O1131       O  0.77645237  0.25067084  0.29409721    -0.74920
O1132       O  0.77632401  0.25013415  0.20605413    -0.74950
O1133       O  0.77642693  0.29433851  0.24974625    -0.75000
O1134       O  0.77630197  0.20656923  0.25044166    -0.75050
O1135       O  0.72522513  0.20667485  0.25019364    -0.74980
O1136       O  0.72535632  0.29462517  0.24951643    -0.74960
O1137       O  0.72510169  0.25063434  0.20583370    -0.74940
O1138       O  0.72522881  0.25114950  0.29388436    -0.75000
Ni1139     Ni  0.77818927  0.25043186  0.25008907     1.25410
Ni1140     Ni  0.72338642  0.25073317  0.24984909     1.25360
C1141       C  0.75086569  0.25109321  0.30836537     0.87260
C1142       C  0.75069156  0.25048045  0.19156522     0.87200
C1143       C  0.75097545  0.30901784  0.24932849     0.87220
C1144       C  0.75079370  0.19207038  0.25065985     0.87390
O1145       O  0.50061186  0.47566421  0.45563439    -0.74920
O1146       O  0.99998898  0.47400206  0.04379016    -0.74950
O1147       O  0.95650057  0.47419027  0.49925047    -0.75000
O1148       O  0.54416464  0.47551987  0.00008665    -0.75050
O1149       O  0.54340805  0.02650229  0.50031988    -0.74980
O1150       O  0.95572097  0.02517724  0.00097041    -0.74960
O1151       O  0.50033583  0.02519018  0.04460472    -0.74940
O1152       O  0.99911936  0.02664383  0.45656785    -0.75000
Ni1153     Ni  0.00034407  0.47301121  0.49966703     1.25410
Ni1154     Ni  0.99956757  0.02769530  0.00063494     1.25360
C1155       C  0.00022966  0.00147597  0.44148014     0.87260
C1156       C  0.00035731  0.99936240  0.05861977     0.87200
C1157       C  0.94155429  0.49942489  0.50032426     0.87220
C1158       C  0.55836192  0.50125142  0.50002265     0.87390
O1159       O  0.99921457  0.22346580  0.45606432    -0.74920
O1160       O  0.00038607  0.22346620  0.04426214    -0.74950
O1161       O  0.95590604  0.22380885  0.50021297    -0.75000
O1162       O  0.54364714  0.22291413  0.99982939    -0.75050
O1163       O  0.54430504  0.27390627  0.50080963    -0.74980
O1164       O  0.95617947  0.27497270  0.99950561    -0.74960
O1165       O  0.99960349  0.27466576  0.04414166    -0.74940
O1166       O  0.00094667  0.27463721  0.45611567    -0.75000
Ni1167     Ni  0.99977483  0.22159663  0.50012558     1.25410
Ni1168     Ni  0.00027361  0.27639502  0.00014462     1.25360
C1169       C  0.00022876  0.24907893  0.44166642     0.87260
C1170       C  0.99996627  0.24910579  0.05862728     0.87200
C1171       C  0.94156351  0.24944466  0.49956241     0.87220
C1172       C  0.55857823  0.24814603  0.50035733     0.87390
O1173       O  0.75023373  0.47380659  0.45641537    -0.74920
O1174       O  0.75050778  0.47566627  0.04455195    -0.74950
O1175       O  0.70657387  0.47395868  0.50041003    -0.75000
O1176       O  0.79425294  0.47546676  0.00044939    -0.75050
O1177       O  0.79334198  0.02640489  0.49938573    -0.74980
O1178       O  0.70565817  0.02493705  0.99945623    -0.74960
O1179       O  0.74972037  0.02659522  0.04335603    -0.74940
O1180       O  0.74930312  0.02481581  0.45534765    -0.75000
Ni1181     Ni  0.75043987  0.47289101  0.50050271     1.25410
Ni1182     Ni  0.74946566  0.02750252  0.99933663     1.25360
C1183       C  0.74993005  0.49901022  0.44127568     0.87260
C1184       C  0.74995487  0.50150172  0.05862266     0.87200
C1185       C  0.69154258  0.49916857  0.50014516     0.87220
C1186       C  0.80838331  0.50120047  0.49973184     0.87390
O1187       O  0.79441645  0.27509822  0.50097972    -0.74920
O1188       O  0.70660640  0.27524365  0.99920997    -0.74950
O1189       O  0.75005507  0.27477336  0.04422174    -0.75000
O1190       O  0.75108806  0.27503664  0.45582324    -0.75050
O1191       O  0.75065787  0.22408282  0.45602915    -0.74980
O1192       O  0.75017607  0.22381609  0.04374779    -0.74960
O1193       O  0.70645888  0.22423382  0.49925332    -0.74940
O1194       O  0.79447131  0.22398748  0.00031597    -0.75000
Ni1195     Ni  0.75052734  0.27687588  0.50005193     1.25410
Ni1196     Ni  0.75043891  0.22224139  0.49985297     1.25360
C1197       C  0.80893533  0.24956475  0.50106480     0.87260
C1198       C  0.69194444  0.24983598  0.49874575     0.87200
C1199       C  0.75028530  0.24907147  0.05864488     0.87220
C1200       C  0.75110557  0.24942391  0.44126899     0.87390
C1201       C  0.89196787  0.27012234  0.01849543    -0.09650
C1202       C  0.90765217  0.24953223  0.49936121     0.06550
C1203       C  0.89058806  0.22892679  0.48102159    -0.03410
C1204       C  0.85852322  0.22904343  0.48226754    -0.07860
C1205       C  0.84284100  0.24961408  0.50136956     0.05660
C1206       C  0.85987346  0.27015244  0.01982903    -0.02890
Br1207     Br  0.84074670  0.29702479  0.04900172    -0.02580
H1208       H  0.90477214  0.28571092  0.03308713     0.09580
H1209       H  0.84574070  0.21340610  0.46770658     0.07590
Br1210     Br  0.90960941  0.20152987  0.45230803    -0.03010
C1211       C  0.60816982  0.27407857  0.48942424    -0.09650
C1212       C  0.59270179  0.24781748  0.49987689     0.06550
C1213       C  0.61031504  0.22204661  0.00901616    -0.03410
C1214       C  0.64235825  0.22341030  0.00832526    -0.07860
C1215       C  0.65782808  0.24978101  0.49823148     0.05660
C1216       C  0.64022256  0.27517512  0.48810230    -0.02890
Br1217     Br  0.65785310  0.31138718  0.47020827    -0.02580
H1218       H  0.59522797  0.29380881  0.48150286     0.09580
H1219       H  0.65529046  0.20360160  0.01606190     0.07590
Br1220     Br  0.59289664  0.18424167  0.02347662    -0.03010
C1221       C  0.89187453  0.02621846  0.49217079    -0.09650
C1222       C  0.90750950  0.49921518  0.50043967     0.06550
C1223       C  0.89012386  0.47308405  0.00852279    -0.03410
C1224       C  0.85810358  0.47447789  0.00795464    -0.07860
C1225       C  0.84245623  0.50145608  0.49965047     0.05660
C1226       C  0.85985349  0.02762604  0.49161355    -0.02890
Br1227     Br  0.84217986  0.06591152  0.47844062    -0.02580
H1228       H  0.90464116  0.04647689  0.48563499     0.09580
H1229       H  0.84537577  0.45420502  0.01451122     0.07590
Br1230     Br  0.90791532  0.43494687  0.02197419    -0.03010
C1231       C  0.60800472  0.47424905  0.00764294    -0.09650
C1232       C  0.59241605  0.50142830  0.49990587     0.06550
C1233       C  0.60984723  0.02767950  0.49226410    -0.03410
C1234       C  0.64185483  0.02615722  0.49263339    -0.07860
C1235       C  0.65747060  0.49896187  0.50034431     0.05660
C1236       C  0.64001935  0.47272250  0.00800493    -0.02890
Br1237     Br  0.65760712  0.43411116  0.02031394    -0.02580
H1238       H  0.59522712  0.45389734  0.01385241     0.09580
H1239       H  0.65460964  0.04652362  0.48642657     0.07590
Br1240     Br  0.59223582  0.06625103  0.47985859    -0.03010
C1241       C  0.75712199  0.22308799  0.14245478    -0.09650
C1242       C  0.75064825  0.25040371  0.15786942     0.06550
C1243       C  0.74430403  0.27711640  0.14094614    -0.03410
C1244       C  0.74439495  0.27616683  0.10878239    -0.07860
C1245       C  0.75058600  0.24870726  0.09289078     0.05660
C1246       C  0.75706077  0.22184398  0.11031251    -0.02890
Br1247     Br  0.76682948  0.18261043  0.09268660    -0.02580
H1248       H  0.76214347  0.20251421  0.15557121     0.09580
H1249       H  0.73945367  0.29707137  0.09622309     0.07590
Br1250     Br  0.73622351  0.31550852  0.16090756    -0.03010
C1251       C  0.75701099  0.22354168  0.35749595    -0.09650
C1252       C  0.75095589  0.25100342  0.34205438     0.06550
C1253       C  0.74522446  0.27779646  0.35894105    -0.03410
C1254       C  0.74555501  0.27679481  0.39111058    -0.07860
C1255       C  0.75137290  0.24919846  0.40702755     0.05660
C1256       C  0.75715847  0.22223486  0.38962961    -0.02890
Br1257     Br  0.76612104  0.18271563  0.40724834    -0.02580
H1258       H  0.76154550  0.20290015  0.34440053     0.09580
H1259       H  0.74104935  0.29775063  0.40365134     0.07590
Br1260     Br  0.73759386  0.31632506  0.33892403    -0.03010
C1261       C  0.74363839  0.02774484  0.14234845    -0.09650
C1262       C  0.74905078  0.50017823  0.15788505     0.06550
C1263       C  0.75469038  0.47333272  0.14107772    -0.03410
C1264       C  0.75486151  0.47435790  0.10893058    -0.07860
C1265       C  0.74963118  0.50201942  0.09288839     0.05660
C1266       C  0.74398428  0.02905788  0.11018883    -0.02890
Br1267     Br  0.73598559  0.06866452  0.09235595    -0.02580
H1268       H  0.73926459  0.04845786  0.15538308     0.09580
H1269       H  0.75921593  0.45330138  0.09650890     0.07590
Br1270     Br  0.76156671  0.43467790  0.16114643    -0.03010
C1271       C  0.76168244  0.47522037  0.35770177    -0.09650
C1272       C  0.74921637  0.50051057  0.34218983     0.06550
C1273       C  0.73735412  0.02519029  0.35911674    -0.03410
C1274       C  0.73788276  0.02418994  0.39126429    -0.07860
C1275       C  0.74994332  0.49866989  0.40712981     0.05660
C1276       C  0.76201800  0.47393631  0.38987146    -0.02890
Br1277     Br  0.78063686  0.43831483  0.40820537    -0.02580
H1278       H  0.77108028  0.45626879  0.34466933     0.09580
H1279       H  0.72867346  0.04349341  0.40388084     0.07590
Br1280     Br  0.72170959  0.06136725  0.33926743    -0.03010
C1281       C  0.72560910  0.35846391  0.26181116    -0.09650
C1282       C  0.75088211  0.34302605  0.24920002     0.06550
C1283       C  0.77527850  0.36050928  0.23707394    -0.03410
C1284       C  0.77404943  0.39254344  0.23809613    -0.07860
C1285       C  0.74878977  0.40798935  0.25073648     0.05660
C1286       C  0.72438837  0.39049827  0.26285270    -0.02890
Br1287     Br  0.68950944  0.40839159  0.28288552    -0.02580
H1288       H  0.70682329  0.34551729  0.27155882     0.09580
H1289       H  0.79283543  0.40548410  0.22834066     0.07590
Br1290     Br  0.81018533  0.34259141  0.21710218    -0.03010
C1291       C  0.77377207  0.10849771  0.26298529    -0.09650
C1292       C  0.74908733  0.09300158  0.24913410     0.06550
C1293       C  0.72503232  0.11045607  0.23590192    -0.03410
C1294       C  0.72600930  0.14252179  0.23703239    -0.07860
C1295       C  0.75070931  0.15802137  0.25085880     0.05660
C1296       C  0.77475278  0.14056341  0.26410471    -0.02890
Br1297     Br  0.80872702  0.15863055  0.28581082    -0.02580
H1298       H  0.79222951  0.09557394  0.27363031     0.09580
H1299       H  0.70754228  0.15544501  0.22640330     0.07590
Br1300     Br  0.69104830  0.09239140  0.21419195    -0.03010
C1301       C  0.97385301  0.26160982  0.10736624    -0.09650
C1302       C  0.99941615  0.24933951  0.09241437     0.06550
C1303       C  0.52412892  0.23805885  0.10994925    -0.03410
C1304       C  0.52288580  0.23889480  0.14206451    -0.07860
C1305       C  0.99709128  0.25071568  0.15735232     0.05660
C1306       C  0.97232252  0.26223789  0.13951378    -0.02890
Br1307     Br  0.93624663  0.28038470  0.15696586    -0.02580
H1308       H  0.95487379  0.27062743  0.09390899     0.09580
H1309       H  0.54221820  0.23008610  0.15511678     0.07590
Br1310     Br  0.56072726  0.22287041  0.09110408    -0.03010
C1311       C  0.52318551  0.26190502  0.35882467    -0.09650
C1312       C  0.99800693  0.24923891  0.34292932     0.06550
C1313       C  0.97386883  0.23604046  0.36009942    -0.03410
C1314       C  0.97529721  0.23594853  0.39224193    -0.07860
C1315       C  0.00011661  0.24913639  0.40787438     0.05660
C1316       C  0.52428773  0.26209402  0.39100805    -0.02890
Br1317     Br  0.55991028  0.27888578  0.41092679    -0.02580
H1318       H  0.54201968  0.27194406  0.34620781     0.09580
H1319       H  0.95677342  0.22572937  0.40514029     0.07590
Br1320     Br  0.93890873  0.21640989  0.34159789    -0.03010
C1321       C  0.97572148  0.48613016  0.10801158    -0.09650
C1322       C  0.00062862  0.99889591  0.09239944     0.06550
C1323       C  0.52523632  0.01131180  0.10926586    -0.03410
C1324       C  0.52452384  0.01105632  0.14142646    -0.07860
C1325       C  0.99931125  0.49884999  0.15735686     0.05660
C1326       C  0.97469233  0.48616128  0.14019347    -0.02890
Br1327     Br  0.93955914  0.46726765  0.15877432    -0.02580
H1328       H  0.95680840  0.47635693  0.09506023     0.09580
H1329       H  0.54371954  0.02072162  0.15400724     0.07590
Br1330     Br  0.56086664  0.02760700  0.08931898    -0.03010
C1331       C  0.51141247  0.02642423  0.35801060    -0.09650
C1332       C  0.50179293  0.00010768  0.34234003     0.06550
C1333       C  0.99203947  0.47438441  0.35908696    -0.03410
C1334       C  0.99179587  0.47535343  0.39123503    -0.07860
C1335       C  0.00093940  0.00188158  0.40729899     0.05660
C1336       C  0.51094781  0.02767750  0.39018130    -0.02890
Br1337     Br  0.52541703  0.06503581  0.40862837    -0.02580
H1338       H  0.51906441  0.04623926  0.34509796     0.09580
H1339       H  0.98419980  0.45524138  0.40367640     0.07590
Br1340     Br  0.97994877  0.43709278  0.33896456    -0.03010
C1341       C  0.52342799  0.35809650  0.26252746    -0.09650
C1342       C  0.99791011  0.34285405  0.24994123     0.06550
C1343       C  0.97347266  0.36051849  0.23778310    -0.03410
C1344       C  0.97502156  0.39251113  0.23849654    -0.07860
C1345       C  0.00054098  0.40774555  0.25102796     0.05660
C1346       C  0.52490369  0.39011951  0.26337011    -0.02890
Br1347     Br  0.56004497  0.40783580  0.28344446    -0.02580
H1348       H  0.54221133  0.34501822  0.27237279     0.09580
H1349       H  0.95622097  0.40558253  0.22866765     0.07590
Br1350     Br  0.93790510  0.34300631  0.21835231    -0.03010
C1351       C  0.52528680  0.14252717  0.25558066    -0.09650
C1352       C  0.99741547  0.15782464  0.24988142     0.06550
C1353       C  0.97081948  0.13999280  0.24437693    -0.03410
C1354       C  0.97272349  0.10798093  0.24469333    -0.07860
C1355       C  0.00060457  0.09269331  0.25032051     0.05660
C1356       C  0.52718100  0.11051731  0.25594529    -0.02890
Br1357     Br  0.56687845  0.09352083  0.26536534    -0.02580
H1358       H  0.54595827  0.15553797  0.26014580     0.09580
H1359       H  0.95205336  0.09495534  0.24015928     0.07590
Br1360     Br  0.93104025  0.15696710  0.23533919    -0.03010
O1361       O  0.97572090  0.99971112  0.79438785    -0.74920
O1362       O  0.97446661  0.50019287  0.70637057    -0.74950
O1363       O  0.97520061  0.45622129  0.75032127    -0.75000
O1364       O  0.97526063  0.04400964  0.75061924    -0.75050
O1365       O  0.52621193  0.04391391  0.74931751    -0.74980
O1366       O  0.52626475  0.45623689  0.75051765    -0.74960
O1367       O  0.52550165  0.99950183  0.70580060    -0.74940
O1368       O  0.52691316  0.50073778  0.79399146    -0.75000
Ni1369     Ni  0.97334136  0.50007420  0.75041614     1.25410
Ni1370     Ni  0.52804597  0.50009884  0.74987513     1.25360
C1371       C  0.50149722  0.00014295  0.80859526     0.87260
C1372       C  0.49970433  0.49944635  0.69149116     0.87200
C1373       C  0.00077563  0.44170788  0.75075987     0.87220
C1374       C  0.00080516  0.05856559  0.75014469     0.87390
O1375       O  0.52331232  0.25008828  0.79429597    -0.74920
O1376       O  0.52272551  0.25057114  0.70609656    -0.74950
O1377       O  0.52316953  0.29425582  0.75031750    -0.75000
O1378       O  0.52284845  0.20644095  0.74996834    -0.75050
O1379       O  0.97189072  0.20671015  0.75020241    -0.74980
O1380       O  0.97212287  0.29440383  0.75016266    -0.74960
O1381       O  0.97169526  0.25060464  0.70614404    -0.74940
O1382       O  0.97226688  0.25046803  0.79416494    -0.75000
Ni1383     Ni  0.52485274  0.25034175  0.75018056     1.25410
Ni1384     Ni  0.97020339  0.25056596  0.75017580     1.25360
C1385       C  0.99780360  0.24989126  0.80881857     0.87260
C1386       C  0.99708058  0.25077984  0.69150837     0.87200
C1387       C  0.99764333  0.30886668  0.75001309     0.87220
C1388       C  0.99726454  0.19196325  0.74994550     0.87390
O1389       O  0.72344943  0.00117290  0.79391588    -0.74920
O1390       O  0.72337145  0.50030885  0.70581183    -0.74950
O1391       O  0.72329640  0.45672869  0.75033118    -0.75000
O1392       O  0.72349587  0.04448377  0.74938435    -0.75050
O1393       O  0.77456961  0.04434064  0.74989688    -0.74980
O1394       O  0.77436312  0.45637840  0.75037621    -0.74960
O1395       O  0.77459402  0.99999778  0.70611947    -0.74940
O1396       O  0.77465369  0.50026831  0.79414235    -0.75000
Ni1397     Ni  0.72158657  0.50065570  0.74985472     1.25410
Ni1398     Ni  0.77638070  0.50027804  0.75014233     1.25360
C1399       C  0.74908188  0.50076698  0.80843558     0.87260
C1400       C  0.74899199  0.50003759  0.69158499     0.87200
C1401       C  0.74872950  0.44201067  0.75065476     0.87220
C1402       C  0.74900932  0.05896058  0.74930531     0.87390
O1403       O  0.77645104  0.25067070  0.79409789    -0.74920
O1404       O  0.77632490  0.25013389  0.70605487    -0.74950
O1405       O  0.77642664  0.29433831  0.74974712    -0.75000
O1406       O  0.77630164  0.20656903  0.75044214    -0.75050
O1407       O  0.72522481  0.20667467  0.75019290    -0.74980
O1408       O  0.72535603  0.29462499  0.74951579    -0.74960
O1409       O  0.72510258  0.25063394  0.70583296    -0.74940
O1410       O  0.72522748  0.25114954  0.79388368    -0.75000
Ni1411     Ni  0.77818900  0.25043166  0.75008982     1.25410
Ni1412     Ni  0.72338615  0.25073299  0.74984835     1.25360
C1413       C  0.75086399  0.25109351  0.80836538     0.87260
C1414       C  0.75069288  0.25047978  0.69156522     0.87200
C1415       C  0.75097516  0.30901766  0.74932894     0.87220
C1416       C  0.75079336  0.19207016  0.75065934     0.87390
O1417       O  0.50059811  0.47567309  0.95563461    -0.74920
O1418       O  0.00000220  0.47399253  0.54379056    -0.74950
O1419       O  0.95648643  0.47420353  0.99925072    -0.75000
O1420       O  0.54417763  0.47551247  0.50008735    -0.75050
O1421       O  0.54339653  0.02650972  0.00031918    -0.74980
O1422       O  0.95573150  0.02516389  0.50097076    -0.74960
O1423       O  0.50034651  0.02518063  0.54460487    -0.74940
O1424       O  0.99910866  0.02665284  0.95656700    -0.75000
Ni1425     Ni  0.00033033  0.47302091  0.99966692     1.25410
Ni1426     Ni  0.99957836  0.02768553  0.50063544     1.25360
C1427       C  0.00021796  0.00148449  0.94147982     0.87260
C1428       C  0.00036890  0.99935303  0.55862003     0.87200
C1429       C  0.94154190  0.49943940  0.00032433     0.87220
C1430       C  0.55834963  0.50125857  0.00002123     0.87390
O1431       O  0.99920386  0.22348234  0.95606443    -0.74920
O1432       O  0.00039636  0.22344934  0.54426235    -0.74950
O1433       O  0.95589587  0.22382689  0.00021316    -0.75000
O1434       O  0.54365812  0.22289943  0.49982979    -0.75050
O1435       O  0.54429656  0.27392090  0.00080922    -0.74980
O1436       O  0.95618870  0.27495468  0.49950581    -0.74960
O1437       O  0.99961213  0.27464887  0.54414170    -0.74940
O1438       O  0.00093791  0.27465368  0.95611531    -0.75000
Ni1439     Ni  0.99976417  0.22161333  0.00012554     1.25410
Ni1440     Ni  0.00028236  0.27637835  0.50014485     1.25360
C1441       C  0.00021929  0.24909527  0.94166630     0.87260
C1442       C  0.99997536  0.24908898  0.55862741     0.87200
C1443       C  0.94155381  0.24946284  0.99956216     0.87220
C1444       C  0.55856851  0.24815985  0.00035671     0.87390
O1445       O  0.75022333  0.47382773  0.95641574    -0.74920
O1446       O  0.75051877  0.47564553  0.54455251    -0.74950
O1447       O  0.70656338  0.47397635  0.00040954    -0.75000
O1448       O  0.79426453  0.47544313  0.50044903    -0.75050
O1449       O  0.79332881  0.02642856  0.99938646    -0.74980
O1450       O  0.70567217  0.02491941  0.49945683    -0.74960
O1451       O  0.74973452  0.02657445  0.54335544    -0.74940
O1452       O  0.74929035  0.02483690  0.95534727    -0.75000
Ni1453     Ni  0.75042903  0.47291204  0.00050261     1.25410
Ni1454     Ni  0.74947944  0.02748149  0.49933655     1.25360
C1455       C  0.74991949  0.49903103  0.94127569     0.87260
C1456       C  0.74996660  0.50148143  0.55862260     0.87200
C1457       C  0.69153035  0.49918503  0.00014426     0.87220
C1458       C  0.80837093  0.50122444  0.99973301     0.87390
O1459       O  0.79440600  0.27510518  0.00098040    -0.74920
O1460       O  0.70661593  0.27523896  0.49921065    -0.74950
O1461       O  0.75006538  0.27476844  0.54422150    -0.75000
O1462       O  0.75107896  0.27504158  0.95582303    -0.75050
O1463       O  0.75064998  0.22408776  0.95602942    -0.74980
O1464       O  0.75018562  0.22381116  0.54374805    -0.74960
O1465       O  0.70644944  0.22423853  0.99925231    -0.74940
O1466       O  0.79447984  0.22398052  0.50031505    -0.75000
Ni1467     Ni  0.75051733  0.27688120  0.00005194     1.25410
Ni1468     Ni  0.75043003  0.22224671  0.99985297     1.25360
C1469       C  0.80892581  0.24957242  0.00106589     0.87260
C1470       C  0.69193495  0.24984080  0.99874432     0.87200
C1471       C  0.75029463  0.24906678  0.55864491     0.87220
C1472       C  0.75109784  0.24942861  0.94126904     0.87390
C1473       C  0.89197902  0.27010677  0.51849576    -0.09650
C1474       C  0.90764247  0.24954971  0.99936011     0.06550
C1475       C  0.89057983  0.22894294  0.98102053    -0.03410
C1476       C  0.85851512  0.22905583  0.98226772    -0.07860
C1477       C  0.84283143  0.24962414  0.00137081     0.05660
C1478       C  0.85988461  0.27014052  0.51982822    -0.02890
Br1479     Br  0.84075999  0.29701523  0.54900005    -0.02580
H1480       H  0.90478437  0.28569440  0.53308738     0.09580
H1481       H  0.84573374  0.21341751  0.96770667     0.07590
Br1482     Br  0.90960301  0.20154885  0.95230551    -0.03010
C1483       C  0.60816187  0.27408884  0.98942327    -0.09650
C1484       C  0.59269209  0.24782877  0.99987564     0.06550
C1485       C  0.61032649  0.22203723  0.50901916    -0.03410
C1486       C  0.64236951  0.22340348  0.50832887    -0.07860
C1487       C  0.65781856  0.24978708  0.99822879     0.05660
C1488       C  0.64021467  0.27518272  0.98810038    -0.02890
Br1489     Br  0.65784731  0.31139361  0.97020595    -0.02580
H1490       H  0.59522151  0.29382009  0.98150283     0.09580
H1491       H  0.65530314  0.20359577  0.51606656     0.07590
Br1492     Br  0.59291064  0.18423181  0.52348133    -0.03010
C1493       C  0.89186400  0.02623849  0.99217447    -0.09650
C1494       C  0.90749704  0.49923292  0.00044054     0.06550
C1495       C  0.89013825  0.47306507  0.50852290    -0.03410
C1496       C  0.85811771  0.47445621  0.50795395    -0.07860
C1497       C  0.84244389  0.50147946  0.99965305     0.05660
C1498       C  0.85984287  0.02764888  0.99161844    -0.02890
Br1499     Br  0.84217144  0.06593726  0.97845106    -0.02580
H1500       H  0.90463190  0.04649613  0.98564030     0.09580
H1501       H  0.84539091  0.45418263  0.51451182     0.07590
Br1502     Br  0.90793304  0.43493021  0.52197679    -0.03010
C1503       C  0.60801531  0.47423998  0.50764614    -0.09650
C1504       C  0.59240370  0.50143627  0.99990273     0.06550
C1505       C  0.60983314  0.02768860  0.99226022    -0.03410
C1506       C  0.64184072  0.02616900  0.99263044    -0.07860
C1507       C  0.65745839  0.49897518  0.00034234     0.05660
C1508       C  0.64002969  0.47271085  0.50800769    -0.02890
Br1509     Br  0.65761451  0.43409840  0.52031734    -0.02580
H1510       H  0.59523646  0.45388911  0.51385575     0.09580
H1511       H  0.65459405  0.04653630  0.98642345     0.07590
Br1512     Br  0.59221955  0.06625833  0.97985196    -0.03010
C1513       C  0.75712468  0.22308546  0.64245601    -0.09650
C1514       C  0.75065075  0.25040186  0.65786944     0.06550
C1515       C  0.74430834  0.27711420  0.64094497    -0.03410
C1516       C  0.74440166  0.27616368  0.60878127    -0.07860
C1517       C  0.75059322  0.24870347  0.59289085     0.05660
C1518       C  0.75706567  0.22184050  0.61031377    -0.02890
Br1519     Br  0.76683384  0.18260614  0.59268950    -0.02580
H1520       H  0.76214471  0.20251192  0.65557338     0.09580
H1521       H  0.73946176  0.29706800  0.59622107     0.07590
Br1522     Br  0.73622693  0.31550701  0.66090478    -0.03010
C1523       C  0.75700850  0.22354392  0.85749716    -0.09650
C1524       C  0.75095330  0.25100493  0.84205441     0.06550
C1525       C  0.74522071  0.27779847  0.85893994    -0.03410
C1526       C  0.74554963  0.27679792  0.89110952    -0.07860
C1527       C  0.75136720  0.24920224  0.90702765     0.05660
C1528       C  0.75715457  0.22223820  0.88963086    -0.02890
Br1529     Br  0.76611791  0.18271978  0.90725115    -0.02580
H1530       H  0.76154414  0.20290206  0.84440265     0.09580
H1531       H  0.74104295  0.29775405  0.90364939     0.07590
Br1532     Br  0.73759086  0.31632636  0.83892140    -0.03010
C1533       C  0.74364258  0.02773095  0.64234535    -0.09650
C1534       C  0.74905519  0.50016622  0.65788496     0.06550
C1535       C  0.75469656  0.47331910  0.64108059    -0.03410
C1536       C  0.75487010  0.47434121  0.60893322    -0.07860
C1537       C  0.74964023  0.50200116  0.59288822     0.05660
C1538       C  0.74399047  0.02904087  0.61018578    -0.02890
Br1539     Br  0.73598942  0.06864537  0.59234908    -0.02580
H1540       H  0.73926696  0.04844506  0.65537764     0.09580
H1541       H  0.75922603  0.45328381  0.59651360     0.07590
Br1542     Br  0.76157178  0.43466635  0.66115366    -0.03010
C1543       C  0.76167852  0.47523456  0.85770498    -0.09650
C1544       C  0.74921251  0.50052256  0.84218965     0.06550
C1545       C  0.73734943  0.02520432  0.85911321    -0.03410
C1546       C  0.73787626  0.02420746  0.89126105    -0.07860
C1547       C  0.74993594  0.49868899  0.90712984     0.05660
C1548       C  0.76201259  0.47395409  0.88987466    -0.02890
Br1549     Br  0.78063253  0.43833528  0.90821280    -0.02580
H1550       H  0.77107749  0.45628174  0.84467514     0.09580
H1551       H  0.72866605  0.04351209  0.90387518     0.07590
Br1552     Br  0.72170623  0.06137910  0.83925878    -0.03010
C1553       C  0.72560858  0.35846339  0.76181275    -0.09650
C1554       C  0.75088187  0.34302587  0.74920170     0.06550
C1555       C  0.77527887  0.36050942  0.73707738    -0.03410
C1556       C  0.77405026  0.39254352  0.73810143    -0.07860
C1557       C  0.74879028  0.40798911  0.75074156     0.05660
C1558       C  0.72438817  0.39049773  0.76285584    -0.02890
Br1559     Br  0.68950844  0.40839065  0.78288759    -0.02580
H1560       H  0.70682224  0.34551651  0.77155903     0.09580
H1561       H  0.79283670  0.40548441  0.72834713     0.07590
Br1562     Br  0.81018570  0.34259219  0.71710504    -0.03010
C1563       C  0.77377226  0.10849708  0.76298077    -0.09650
C1564       C  0.74908748  0.09300134  0.74912911     0.06550
C1565       C  0.72503205  0.11045628  0.73589832    -0.03410
C1566       C  0.72600887  0.14252197  0.73703022    -0.07860
C1567       C  0.75070896  0.15802112  0.75085706     0.05660
C1568       C  0.77475267  0.14056271  0.76410188    -0.02890
Br1569     Br  0.80872674  0.15862898  0.78580901    -0.02580
H1570       H  0.79222985  0.09557302  0.77362515     0.09580
H1571       H  0.70754158  0.15544554  0.72640206     0.07590
Br1572     Br  0.69104726  0.09239236  0.71418895    -0.03010
C1573       C  0.97386000  0.26159581  0.60736418    -0.09650
C1574       C  0.99942342  0.24932341  0.59241446     0.06550
C1575       C  0.52413526  0.23804384  0.60995137    -0.03410
C1576       C  0.52289110  0.23888345  0.64206654    -0.07860
C1577       C  0.99709650  0.25070705  0.65735213     0.05660
C1578       C  0.97232853  0.26222764  0.63951153    -0.02890
Br1579     Br  0.93625277  0.28037796  0.65696033    -0.02580
H1580       H  0.95488162  0.27061275  0.59390538     0.09580
H1581       H  0.54222277  0.23007574  0.65512048     0.07590
Br1582     Br  0.56073400  0.22285269  0.59110918    -0.03010
C1583       C  0.52318050  0.26191442  0.85882468    -0.09650
C1584       C  0.99800286  0.24924692  0.84292910     0.06550
C1585       C  0.97386317  0.23605115  0.86009915    -0.03410
C1586       C  0.97528942  0.23596305  0.89224161    -0.07860
C1587       C  0.00010807  0.24915182  0.90787428     0.05660
C1588       C  0.52428068  0.26210703  0.89100807    -0.02890
Br1589     Br  0.55990267  0.27889947  0.91092724    -0.02580
H1590       H  0.54201625  0.27195181  0.84620758     0.09580
H1591       H  0.95676404  0.22574508  0.90514031     0.07590
Br1592     Br  0.93890411  0.21641871  0.84159768    -0.03010
C1593       C  0.97573046  0.48612299  0.60801096    -0.09650
C1594       C  0.00063868  0.99888755  0.59239967     0.06550
C1595       C  0.52524452  0.01130605  0.60926687    -0.03410
C1596       C  0.52452971  0.01105311  0.64142739    -0.07860
C1597       C  0.99931629  0.49884745  0.65735690     0.05660
C1598       C  0.97469869  0.48615720  0.64019274    -0.02890
Br1599     Br  0.93956349  0.46726619  0.65877240    -0.02580
H1600       H  0.95681834  0.47634871  0.59505900     0.09580
H1601       H  0.54372420  0.02071999  0.65400880     0.07590
Br1602     Br  0.56087508  0.02760245  0.58932135    -0.03010
C1603       C  0.51140832  0.02642747  0.85800975    -0.09650
C1604       C  0.50178890  0.00011037  0.84233997     0.06550
C1605       C  0.99203306  0.47438849  0.85908761    -0.03410
C1606       C  0.99178640  0.47535968  0.89123556    -0.07860
C1607       C  0.00092962  0.00188853  0.90729870     0.05660
C1608       C  0.51094102  0.02768275  0.89018034    -0.02890
Br1609     Br  0.52541133  0.06504098  0.90862658    -0.02580
H1610       H  0.51906224  0.04624137  0.84509656     0.09580
H1611       H  0.98418852  0.45524865  0.90367744     0.07590
Br1612     Br  0.97994366  0.43709574  0.83896646    -0.03010
C1613       C  0.52342861  0.35809617  0.76252561    -0.09650
C1614       C  0.99791125  0.34285386  0.74993819     0.06550
C1615       C  0.97347395  0.36051844  0.73777995    -0.03410
C1616       C  0.97502249  0.39251110  0.73849456    -0.07860
C1617       C  0.00054141  0.40774537  0.75102726     0.05660
C1618       C  0.52490396  0.39011916  0.76336940    -0.02890
Br1619     Br  0.56004463  0.40783505  0.78344521    -0.02580
H1620       H  0.54221177  0.34501778  0.77237113     0.09580
H1621       H  0.95622205  0.40558263  0.72866556     0.07590
Br1622     Br  0.93790713  0.34300639  0.71834761    -0.03010
C1623       C  0.52528744  0.14252687  0.75558285    -0.09650
C1624       C  0.99741619  0.15782448  0.74988379     0.06550
C1625       C  0.97082028  0.13999279  0.74437835    -0.03410
C1626       C  0.97272430  0.10798093  0.74469384    -0.07860
C1627       C  0.00060532  0.09269315  0.75032084     0.05660
C1628       C  0.52718168  0.11051701  0.75594638    -0.02890
Br1629     Br  0.56687924  0.09352037  0.76536569    -0.02580
H1630       H  0.54595889  0.15553754  0.76014845     0.09580
H1631       H  0.95205421  0.09495548  0.74015920     0.07590
Br1632     Br  0.93104116  0.15696724  0.73534033    -0.03010
O1633       O  0.97572245  0.49971065  0.29438913    -0.74920
O1634       O  0.97446410  0.00019346  0.20637185    -0.74950
O1635       O  0.97520022  0.95622141  0.25032224    -0.75000
O1636       O  0.97526007  0.54400973  0.25062084    -0.75050
O1637       O  0.52621133  0.54391410  0.24931666    -0.74980
O1638       O  0.52626438  0.95623702  0.25051618    -0.74960
O1639       O  0.52549913  0.49950248  0.20579937    -0.74940
O1640       O  0.52691469  0.00073735  0.29399027    -0.75000
Ni1641     Ni  0.97334088  0.00007428  0.25041750     1.25410
Ni1642     Ni  0.52804548  0.00009900  0.24987385     1.25360
C1643       C  0.50149948  0.50014197  0.30859531     0.87260
C1644       C  0.49970111  0.99944737  0.19149117     0.87200
C1645       C  0.00077525  0.94170803  0.25075981     0.87220
C1646       C  0.00080452  0.55856574  0.25014495     0.87390
O1647       O  0.52331363  0.75008560  0.29429490    -0.74920
O1648       O  0.52272234  0.75057438  0.20609562    -0.74950
O1649       O  0.52316850  0.79425606  0.25031903    -0.75000
O1650       O  0.52284758  0.70644121  0.24996483    -0.75050
O1651       O  0.97188982  0.70671023  0.25020141    -0.74980
O1652       O  0.97212180  0.79440397  0.25016681    -0.74960
O1653       O  0.97169208  0.75060779  0.20614550    -0.74940
O1654       O  0.97226815  0.75046515  0.29416661    -0.75000
Ni1655     Ni  0.52485179  0.75034202  0.25017946     1.25410
Ni1656     Ni  0.97020240  0.75056608  0.25017747     1.25360
C1657       C  0.99780567  0.74988704  0.30881883     0.87260
C1658       C  0.99707672  0.75078453  0.19150863     0.87200
C1659       C  0.99764222  0.80886687  0.25001622     0.87220
C1660       C  0.99726368  0.69196342  0.24994299     0.87390
O1661       O  0.72345136  0.50116789  0.29391724    -0.74920
O1662       O  0.72336927  0.00031447  0.20581312    -0.74950
O1663       O  0.72329617  0.95672903  0.25032783    -0.75000
O1664       O  0.72349582  0.54448409  0.24939026    -0.75050
O1665       O  0.77456959  0.54434093  0.24990041    -0.74980
O1666       O  0.77436288  0.95637857  0.25037059    -0.74960
O1667       O  0.77459186  0.50000329  0.20611838    -0.74940
O1668       O  0.77465561  0.00026329  0.29414137    -0.75000
Ni1669     Ni  0.72158645  0.00065603  0.24985612     1.25410
Ni1670     Ni  0.77638059  0.00027827  0.25014121     1.25360
C1671       C  0.74908442  0.00075965  0.30843578     0.87260
C1672       C  0.74898915  0.00004542  0.19158507     0.87200
C1673       C  0.74872921  0.94201091  0.25064969     0.87220
C1674       C  0.74900927  0.55896087  0.24931051     0.87390
O1675       O  0.77645239  0.75067084  0.29409721    -0.74920
O1676       O  0.77632402  0.75013414  0.20605412    -0.74950
O1677       O  0.77642694  0.79433850  0.24974625    -0.75000
O1678       O  0.77630197  0.70656923  0.25044166    -0.75050
O1679       O  0.72522514  0.70667485  0.25019365    -0.74980
O1680       O  0.72535633  0.79462517  0.24951643    -0.74960
O1681       O  0.72510169  0.75063433  0.20583370    -0.74940
O1682       O  0.72522883  0.75114951  0.29388436    -0.75000
Ni1683     Ni  0.77818928  0.75043186  0.25008907     1.25410
Ni1684     Ni  0.72338643  0.75073317  0.24984909     1.25360
C1685       C  0.75086571  0.75109321  0.30836537     0.87260
C1686       C  0.75069156  0.75048044  0.19156522     0.87200
C1687       C  0.75097546  0.80901784  0.24932848     0.87220
C1688       C  0.75079371  0.69207038  0.25065986     0.87390
O1689       O  0.50061185  0.97566418  0.45563439    -0.74920
O1690       O  0.99998898  0.97400206  0.04379016    -0.74950
O1691       O  0.95650055  0.97419024  0.49925047    -0.75000
O1692       O  0.54416464  0.97551987  0.00008665    -0.75050
O1693       O  0.54340806  0.52650233  0.50031988    -0.74980
O1694       O  0.95572097  0.52517723  0.00097041    -0.74960
O1695       O  0.50033582  0.52519019  0.04460471    -0.74940
O1696       O  0.99911937  0.52664386  0.45656784    -0.75000
Ni1697     Ni  0.00034405  0.97301117  0.49966703     1.25410
Ni1698     Ni  0.99956757  0.52769530  0.00063494     1.25360
C1699       C  0.00022967  0.50147600  0.44148013     0.87260
C1700       C  0.00035731  0.49936240  0.05861977     0.87200
C1701       C  0.94155428  0.99942486  0.50032426     0.87220
C1702       C  0.55836191  0.00125138  0.50002265     0.87390
O1703       O  0.99921457  0.72346581  0.45606431    -0.74920
O1704       O  0.00038609  0.72346620  0.04426213    -0.74950
O1705       O  0.95590605  0.72380884  0.50021297    -0.75000
O1706       O  0.54364715  0.72291413  0.99982939    -0.75050
O1707       O  0.54430504  0.77390627  0.50080963    -0.74980
O1708       O  0.95617949  0.77497272  0.99950562    -0.74960
O1709       O  0.99960351  0.77466576  0.04414167    -0.74940
O1710       O  0.00094667  0.77463721  0.45611568    -0.75000
Ni1711     Ni  0.99977484  0.72159663  0.50012557     1.25410
Ni1712     Ni  0.00027363  0.77639502  0.00014463     1.25360
C1713       C  0.00022875  0.74907894  0.44166642     0.87260
C1714       C  0.99996628  0.74910579  0.05862728     0.87200
C1715       C  0.94156352  0.74944465  0.49956241     0.87220
C1716       C  0.55857823  0.74814602  0.50035733     0.87390
O1717       O  0.75023372  0.97380657  0.45641537    -0.74920
O1718       O  0.75050778  0.97566628  0.04455195    -0.74950
O1719       O  0.70657386  0.97395866  0.50041003    -0.75000
O1720       O  0.79425294  0.97546678  0.00044939    -0.75050
O1721       O  0.79334199  0.52640491  0.49938573    -0.74980
O1722       O  0.70565817  0.52493704  0.99945622    -0.74960
O1723       O  0.74972037  0.52659521  0.04335603    -0.74940
O1724       O  0.74930313  0.52481584  0.45534765    -0.75000
Ni1725     Ni  0.75043986  0.97289098  0.50050271     1.25410
Ni1726     Ni  0.74946566  0.52750251  0.99933663     1.25360
C1727       C  0.74993004  0.99901019  0.44127568     0.87260
C1728       C  0.74995487  0.00150174  0.05862266     0.87200
C1729       C  0.69154257  0.99916854  0.50014516     0.87220
C1730       C  0.80838330  0.00120045  0.49973184     0.87390
O1731       O  0.79441646  0.77509821  0.50097973    -0.74920
O1732       O  0.70660642  0.77524363  0.99920997    -0.74950
O1733       O  0.75005508  0.77477334  0.04422174    -0.75000
O1734       O  0.75108807  0.77503664  0.45582325    -0.75050
O1735       O  0.75065787  0.72408282  0.45602915    -0.74980
O1736       O  0.75017609  0.72381608  0.04374778    -0.74960
O1737       O  0.70645888  0.72423381  0.49925332    -0.74940
O1738       O  0.79447133  0.72398748  0.00031597    -0.75000
Ni1739     Ni  0.75052734  0.77687588  0.50005193     1.25410
Ni1740     Ni  0.75043891  0.72224139  0.49985297     1.25360
C1741       C  0.80893533  0.74956475  0.50106481     0.87260
C1742       C  0.69194444  0.74983598  0.49874575     0.87200
C1743       C  0.75028531  0.74907145  0.05864488     0.87220
C1744       C  0.75110558  0.74942391  0.44126899     0.87390
C1745       C  0.89196788  0.77012236  0.01849543    -0.09650
C1746       C  0.90765217  0.74953222  0.49936122     0.06550
C1747       C  0.89058806  0.72892678  0.48102160    -0.03410
C1748       C  0.85852323  0.72904342  0.48226755    -0.07860
C1749       C  0.84284101  0.74961408  0.50136956     0.05660
C1750       C  0.85987347  0.77015245  0.01982903    -0.02890
Br1751     Br  0.84074671  0.79702479  0.04900173    -0.02580
H1752       H  0.90477215  0.78571093  0.03308714     0.09580
H1753       H  0.84574070  0.71340608  0.46770659     0.07590
Br1754     Br  0.90960941  0.70152986  0.45230804    -0.03010
C1755       C  0.60816982  0.77407857  0.48942424    -0.09650
C1756       C  0.59270180  0.74781747  0.49987689     0.06550
C1757       C  0.61031506  0.72204659  0.00901616    -0.03410
C1758       C  0.64235827  0.72341028  0.00832526    -0.07860
C1759       C  0.65782809  0.74978100  0.49823148     0.05660
C1760       C  0.64022257  0.77517511  0.48810230    -0.02890
Br1761     Br  0.65785310  0.81138718  0.47020826    -0.02580
H1762       H  0.59522797  0.79380881  0.48150286     0.09580
H1763       H  0.65529047  0.70360157  0.01606190     0.07590
Br1764     Br  0.59289665  0.68424166  0.02347661    -0.03010
C1765       C  0.89187454  0.52621850  0.49217080    -0.09650
C1766       C  0.90750949  0.99921515  0.50043968     0.06550
C1767       C  0.89012386  0.97308405  0.00852278    -0.03410
C1768       C  0.85810358  0.97447790  0.00795463    -0.07860
C1769       C  0.84245622  0.00145605  0.49965048     0.05660
C1770       C  0.85985350  0.52762607  0.49161356    -0.02890
Br1771     Br  0.84217987  0.56591156  0.47844065    -0.02580
H1772       H  0.90464117  0.54647693  0.48563502     0.09580
H1773       H  0.84537577  0.95420502  0.01451120     0.07590
Br1774     Br  0.90791532  0.93494687  0.02197416    -0.03010
C1775       C  0.60800473  0.97424906  0.00764295    -0.09650
C1776       C  0.59241604  0.00142826  0.49990587     0.06550
C1777       C  0.60984725  0.52767954  0.49226412    -0.03410
C1778       C  0.64185484  0.52615726  0.49263341    -0.07860
C1779       C  0.65747059  0.99896184  0.50034431     0.05660
C1780       C  0.64001935  0.97272252  0.00800495    -0.02890
Br1781     Br  0.65760713  0.93411118  0.02031398    -0.02580
H1782       H  0.59522712  0.95389736  0.01385244     0.09580
H1783       H  0.65460965  0.54652366  0.48642659     0.07590
Br1784     Br  0.59223584  0.56625108  0.47985863    -0.03010
C1785       C  0.75712198  0.72308797  0.14245478    -0.09650
C1786       C  0.75064825  0.75040369  0.15786943     0.06550
C1787       C  0.74430404  0.77711638  0.14094614    -0.03410
C1788       C  0.74439496  0.77616681  0.10878239    -0.07860
C1789       C  0.75058601  0.74870724  0.09289078     0.05660
C1790       C  0.75706076  0.72184396  0.11031251    -0.02890
Br1791     Br  0.76682946  0.68261040  0.09268661    -0.02580
H1792       H  0.76214346  0.70251419  0.15557122     0.09580
H1793       H  0.73945369  0.79707136  0.09622309     0.07590
Br1794     Br  0.73622353  0.81550850  0.16090756    -0.03010
C1795       C  0.75701107  0.72354171  0.35749595    -0.09650
C1796       C  0.75095591  0.75100343  0.34205439     0.06550
C1797       C  0.74522443  0.77779646  0.35894105    -0.03410
C1798       C  0.74555498  0.77679481  0.39111058    -0.07860
C1799       C  0.75137292  0.74919847  0.40702755     0.05660
C1800       C  0.75715855  0.72223488  0.38962961    -0.02890
Br1801     Br  0.76612121  0.68271567  0.40724834    -0.02580
H1802       H  0.76154563  0.70290018  0.34440053     0.09580
H1803       H  0.74104928  0.79775062  0.40365135     0.07590
Br1804     Br  0.73759377  0.81632504  0.33892403    -0.03010
C1805       C  0.74363837  0.52774483  0.14234845    -0.09650
C1806       C  0.74905079  0.00017823  0.15788505     0.06550
C1807       C  0.75469038  0.97333272  0.14107772    -0.03410
C1808       C  0.75486151  0.97435790  0.10893058    -0.07860
C1809       C  0.74963119  0.00201943  0.09288839     0.05660
C1810       C  0.74398427  0.52905787  0.11018882    -0.02890
Br1811     Br  0.73598557  0.56866451  0.09235594    -0.02580
H1812       H  0.73926457  0.54845786  0.15538308     0.09580
H1813       H  0.75921593  0.95330139  0.09650890     0.07590
Br1814     Br  0.76156670  0.93467791  0.16114643    -0.03010
C1815       C  0.76168246  0.97522036  0.35770177    -0.09650
C1816       C  0.74921637  0.00051056  0.34218984     0.06550
C1817       C  0.73735413  0.52519031  0.35911673    -0.03410
C1818       C  0.73788278  0.52418996  0.39126429    -0.07860
C1819       C  0.74994331  0.99866987  0.40712981     0.05660
C1820       C  0.76201801  0.97393630  0.38987146    -0.02890
Br1821     Br  0.78063688  0.93831483  0.40820537    -0.02580
H1822       H  0.77108031  0.95626879  0.34466933     0.09580
H1823       H  0.72867349  0.54349345  0.40388084     0.07590
Br1824     Br  0.72170961  0.56136728  0.33926742    -0.03010
C1825       C  0.72560911  0.85846390  0.26181115    -0.09650
C1826       C  0.75088212  0.84302605  0.24920001     0.06550
C1827       C  0.77527852  0.86050928  0.23707394    -0.03410
C1828       C  0.77404944  0.89254344  0.23809612    -0.07860
C1829       C  0.74878979  0.90798935  0.25073647     0.05660
C1830       C  0.72438839  0.89049826  0.26285269    -0.02890
Br1831     Br  0.68950945  0.90839158  0.28288551    -0.02580
H1832       H  0.70682331  0.84551729  0.27155881     0.09580
H1833       H  0.79283545  0.90548410  0.22834066     0.07590
Br1834     Br  0.81018535  0.84259141  0.21710218    -0.03010
C1835       C  0.77377207  0.60849771  0.26298530    -0.09650
C1836       C  0.74908733  0.59300158  0.24913410     0.06550
C1837       C  0.72503232  0.61045607  0.23590193    -0.03410
C1838       C  0.72600930  0.64252179  0.23703239    -0.07860
C1839       C  0.75070931  0.65802137  0.25085881     0.05660
C1840       C  0.77475278  0.64056341  0.26410472    -0.02890
Br1841     Br  0.80872702  0.65863054  0.28581083    -0.02580
H1842       H  0.79222951  0.59557393  0.27363031     0.09580
H1843       H  0.70754228  0.65544501  0.22640331     0.07590
Br1844     Br  0.69104830  0.59239141  0.21419195    -0.03010
C1845       C  0.97385304  0.76160985  0.10736624    -0.09650
C1846       C  0.99941617  0.74933950  0.09241437     0.06550
C1847       C  0.52412891  0.73805880  0.10994925    -0.03410
C1848       C  0.52288579  0.73889475  0.14206452    -0.07860
C1849       C  0.99709129  0.75071567  0.15735233     0.05660
C1850       C  0.97232255  0.76223792  0.13951378    -0.02890
Br1851     Br  0.93624669  0.78038479  0.15696586    -0.02580
H1852       H  0.95487384  0.77062750  0.09390899     0.09580
H1853       H  0.54221818  0.73008604  0.15511679     0.07590
Br1854     Br  0.56072724  0.72287032  0.09110409    -0.03010
C1855       C  0.52318551  0.76190505  0.35882467    -0.09650
C1856       C  0.99800692  0.74923892  0.34292932     0.06550
C1857       C  0.97386881  0.73604048  0.36009942    -0.03410
C1858       C  0.97529720  0.73594855  0.39224193    -0.07860
C1859       C  0.00011660  0.74913641  0.40787438     0.05660
C1860       C  0.52428773  0.76209404  0.39100805    -0.02890
Br1861     Br  0.55991026  0.77888583  0.41092679    -0.02580
H1862       H  0.54201968  0.77194410  0.34620781     0.09580
H1863       H  0.95677341  0.72572939  0.40514029     0.07590
Br1864     Br  0.93890871  0.71640993  0.34159790    -0.03010
C1865       C  0.97572148  0.98613015  0.10801158    -0.09650
C1866       C  0.00062862  0.49889592  0.09239944     0.06550
C1867       C  0.52523632  0.51131180  0.10926585    -0.03410
C1868       C  0.52452385  0.51105633  0.14142646    -0.07860
C1869       C  0.99931125  0.99884999  0.15735686     0.05660
C1870       C  0.97469233  0.98616126  0.14019348    -0.02890
Br1871     Br  0.93955915  0.96726763  0.15877432    -0.02580
H1872       H  0.95680841  0.97635691  0.09506023     0.09580
H1873       H  0.54371954  0.52072162  0.15400723     0.07590
Br1874     Br  0.56086664  0.52760700  0.08931897    -0.03010
C1875       C  0.51141247  0.52642424  0.35801059    -0.09650
C1876       C  0.50179295  0.50010769  0.34234002     0.06550
C1877       C  0.99203944  0.97438440  0.35908696    -0.03410
C1878       C  0.99179585  0.97535341  0.39123503    -0.07860
C1879       C  0.00093941  0.50188160  0.40729898     0.05660
C1880       C  0.51094781  0.52767752  0.39018129    -0.02890
Br1881     Br  0.52541701  0.56503585  0.40862836    -0.02580
H1882       H  0.51906441  0.54623928  0.34509794     0.09580
H1883       H  0.98419977  0.95524137  0.40367639     0.07590
Br1884     Br  0.97994874  0.93709278  0.33896455    -0.03010
C1885       C  0.52342799  0.85809650  0.26252745    -0.09650
C1886       C  0.99791010  0.84285405  0.24994123     0.06550
C1887       C  0.97347264  0.86051849  0.23778311    -0.03410
C1888       C  0.97502155  0.89251113  0.23849655    -0.07860
C1889       C  0.00054097  0.90774555  0.25102797     0.05660
C1890       C  0.52490369  0.89011951  0.26337010    -0.02890
Br1891     Br  0.56004497  0.90783580  0.28344445    -0.02580
H1892       H  0.54221133  0.84501822  0.27237277     0.09580
H1893       H  0.95622094  0.90558253  0.22866768     0.07590
Br1894     Br  0.93790507  0.84300631  0.21835235    -0.03010
C1895       C  0.52528682  0.64252718  0.25558067    -0.09650
C1896       C  0.99741547  0.65782464  0.24988142     0.06550
C1897       C  0.97081949  0.63999280  0.24437693    -0.03410
C1898       C  0.97272350  0.60798093  0.24469333    -0.07860
C1899       C  0.00060458  0.59269331  0.25032051     0.05660
C1900       C  0.52718102  0.61051732  0.25594529    -0.02890
Br1901     Br  0.56687846  0.59352083  0.26536535    -0.02580
H1902       H  0.54595828  0.65553797  0.26014581     0.09580
H1903       H  0.95205337  0.59495534  0.24015928     0.07590
Br1904     Br  0.93104025  0.65696710  0.23533919    -0.03010
O1905       O  0.97572090  0.49971111  0.79438785    -0.74920
O1906       O  0.97446661  0.00019286  0.70637057    -0.74950
O1907       O  0.97520061  0.95622129  0.75032128    -0.75000
O1908       O  0.97526064  0.54400964  0.75061924    -0.75050
O1909       O  0.52621194  0.54391390  0.74931752    -0.74980
O1910       O  0.52626476  0.95623689  0.75051766    -0.74960
O1911       O  0.52550165  0.49950184  0.70580060    -0.74940
O1912       O  0.52691316  0.00073779  0.79399147    -0.75000
Ni1913     Ni  0.97334136  0.00007420  0.75041614     1.25410
Ni1914     Ni  0.52804597  0.00009885  0.74987513     1.25360
C1915       C  0.50149722  0.50014295  0.80859526     0.87260
C1916       C  0.49970433  0.99944634  0.69149116     0.87200
C1917       C  0.00077563  0.94170788  0.75075988     0.87220
C1918       C  0.00080516  0.55856559  0.75014469     0.87390
O1919       O  0.52331235  0.75008829  0.79429597    -0.74920
O1920       O  0.52272554  0.75057113  0.70609656    -0.74950
O1921       O  0.52316956  0.79425582  0.75031749    -0.75000
O1922       O  0.52284848  0.70644095  0.74996835    -0.75050
O1923       O  0.97189072  0.70671015  0.75020242    -0.74980
O1924       O  0.97212288  0.79440384  0.75016266    -0.74960
O1925       O  0.97169526  0.75060463  0.70614404    -0.74940
O1926       O  0.97226689  0.75046804  0.79416494    -0.75000
Ni1927     Ni  0.52485278  0.75034176  0.75018056     1.25410
Ni1928     Ni  0.97020340  0.75056597  0.75017581     1.25360
C1929       C  0.99780360  0.74989127  0.80881857     0.87260
C1930       C  0.99708059  0.75077982  0.69150837     0.87200
C1931       C  0.99764333  0.80886668  0.75001308     0.87220
C1932       C  0.99726454  0.69196325  0.74994551     0.87390
O1933       O  0.72344945  0.50117289  0.79391588    -0.74920
O1934       O  0.72337143  0.00030885  0.70581184    -0.74950
O1935       O  0.72329639  0.95672869  0.75033119    -0.75000
O1936       O  0.72349589  0.54448377  0.74938435    -0.75050
O1937       O  0.77456963  0.54434064  0.74989689    -0.74980
O1938       O  0.77436311  0.95637841  0.75037621    -0.74960
O1939       O  0.77459404  0.49999779  0.70611947    -0.74940
O1940       O  0.77465368  0.00026832  0.79414235    -0.75000
Ni1941     Ni  0.72158655  0.00065570  0.74985472     1.25410
Ni1942     Ni  0.77638069  0.00027804  0.75014232     1.25360
C1943       C  0.74908187  0.00076698  0.80843558     0.87260
C1944       C  0.74899197  0.00003758  0.69158499     0.87200
C1945       C  0.74872948  0.94201067  0.75065477     0.87220
C1946       C  0.74900934  0.55896058  0.74930531     0.87390
O1947       O  0.77645105  0.75067071  0.79409790    -0.74920
O1948       O  0.77632493  0.75013389  0.70605488    -0.74950
O1949       O  0.77642665  0.79433832  0.74974712    -0.75000
O1950       O  0.77630166  0.70656903  0.75044215    -0.75050
O1951       O  0.72522483  0.70667466  0.75019290    -0.74980
O1952       O  0.72535604  0.79462499  0.74951579    -0.74960
O1953       O  0.72510260  0.75063393  0.70583296    -0.74940
O1954       O  0.72522749  0.75114955  0.79388368    -0.75000
Ni1955     Ni  0.77818902  0.75043167  0.75008982     1.25410
Ni1956     Ni  0.72338617  0.75073299  0.74984835     1.25360
C1957       C  0.75086400  0.75109352  0.80836538     0.87260
C1958       C  0.75069290  0.75047977  0.69156523     0.87200
C1959       C  0.75097517  0.80901766  0.74932894     0.87220
C1960       C  0.75079339  0.69207016  0.75065935     0.87390
O1961       O  0.50059811  0.97567309  0.95563461    -0.74920
O1962       O  0.00000219  0.97399249  0.54379056    -0.74950
O1963       O  0.95648643  0.97420354  0.99925072    -0.75000
O1964       O  0.54417762  0.97551243  0.50008735    -0.75050
O1965       O  0.54339652  0.52650972  0.00031918    -0.74980
O1966       O  0.95573151  0.52516393  0.50097076    -0.74960
O1967       O  0.50034652  0.52518068  0.54460486    -0.74940
O1968       O  0.99910865  0.52665283  0.95656700    -0.75000
Ni1969     Ni  0.00033033  0.97302091  0.99966692     1.25410
Ni1970     Ni  0.99957837  0.52768557  0.50063544     1.25360
C1971       C  0.00021796  0.50148448  0.94147982     0.87260
C1972       C  0.00036891  0.49935307  0.55862003     0.87200
C1973       C  0.94154190  0.99943940  0.00032433     0.87220
C1974       C  0.55834964  0.00125858  0.00002124     0.87390
O1975       O  0.99920387  0.72348236  0.95606442    -0.74920
O1976       O  0.00039637  0.72344932  0.54426235    -0.74950
O1977       O  0.95589588  0.72382690  0.00021316    -0.75000
O1978       O  0.54365812  0.72289943  0.49982979    -0.75050
O1979       O  0.54429658  0.77392090  0.00080924    -0.74980
O1980       O  0.95618870  0.77495468  0.49950582    -0.74960
O1981       O  0.99961214  0.77464885  0.54414171    -0.74940
O1982       O  0.00093793  0.77465370  0.95611532    -0.75000
Ni1983     Ni  0.99976418  0.72161333  0.00012553     1.25410
Ni1984     Ni  0.00028237  0.77637835  0.50014486     1.25360
C1985       C  0.00021931  0.74909529  0.94166630     0.87260
C1986       C  0.99997537  0.74908897  0.55862741     0.87200
C1987       C  0.94155383  0.74946286  0.99956216     0.87220
C1988       C  0.55856852  0.74815985  0.00035672     0.87390
O1989       O  0.75022333  0.97382774  0.95641574    -0.74920
O1990       O  0.75051876  0.97564551  0.54455251    -0.74950
O1991       O  0.70656338  0.97397637  0.00040954    -0.75000
O1992       O  0.79426452  0.97544310  0.50044904    -0.75050
O1993       O  0.79332881  0.52642855  0.99938646    -0.74980
O1994       O  0.70567218  0.52491944  0.49945683    -0.74960
O1995       O  0.74973453  0.52657448  0.54335544    -0.74940
O1996       O  0.74929035  0.52483688  0.95534727    -0.75000
Ni1997     Ni  0.75042903  0.97291206  0.00050261     1.25410
Ni1998     Ni  0.74947946  0.52748152  0.49933655     1.25360
C1999       C  0.74991949  0.99903104  0.94127569     0.87260
C2000       C  0.74996658  0.00148140  0.55862260     0.87200
C2001       C  0.69153035  0.99918504  0.00014426     0.87220
C2002       C  0.80837093  0.00122446  0.99973301     0.87390
O2003       O  0.79440601  0.77510518  0.00098040    -0.74920
O2004       O  0.70661593  0.77523895  0.49921065    -0.74950
O2005       O  0.75006538  0.77476843  0.54422150    -0.75000
O2006       O  0.75107897  0.77504157  0.95582303    -0.75050
O2007       O  0.75065000  0.72408775  0.95602942    -0.74980
O2008       O  0.75018563  0.72381115  0.54374805    -0.74960
O2009       O  0.70644946  0.72423851  0.99925230    -0.74940
O2010       O  0.79447984  0.72398052  0.50031505    -0.75000
Ni2011     Ni  0.75051734  0.77688118  0.00005194     1.25410
Ni2012     Ni  0.75043005  0.72224670  0.99985297     1.25360
C2013       C  0.80892583  0.74957242  0.00106589     0.87260
C2014       C  0.69193497  0.74984078  0.99874432     0.87200
C2015       C  0.75029463  0.74906676  0.55864491     0.87220
C2016       C  0.75109785  0.74942861  0.94126904     0.87390
C2017       C  0.89197902  0.77010676  0.51849576    -0.09650
C2018       C  0.90764249  0.74954973  0.99936011     0.06550
C2019       C  0.89057985  0.72894296  0.98102053    -0.03410
C2020       C  0.85851514  0.72905585  0.98226771    -0.07860
C2021       C  0.84283144  0.74962415  0.00137081     0.05660
C2022       C  0.85988462  0.77014051  0.51982822    -0.02890
Br2023     Br  0.84075999  0.79701523  0.54900005    -0.02580
H2024       H  0.90478438  0.78569440  0.53308738     0.09580
H2025       H  0.84573376  0.71341752  0.96770666     0.07590
Br2026     Br  0.90960303  0.70154888  0.95230550    -0.03010
C2027       C  0.60816189  0.77408883  0.98942327    -0.09650
C2028       C  0.59269211  0.74782876  0.99987564     0.06550
C2029       C  0.61032650  0.72203722  0.50901916    -0.03410
C2030       C  0.64236952  0.72340348  0.50832886    -0.07860
C2031       C  0.65781857  0.74978706  0.99822879     0.05660
C2032       C  0.64021469  0.77518270  0.98810038    -0.02890
Br2033     Br  0.65784734  0.81139358  0.97020594    -0.02580
H2034       H  0.59522153  0.79382007  0.98150283     0.09580
H2035       H  0.65530314  0.70359576  0.51606656     0.07590
Br2036     Br  0.59291064  0.68423180  0.52348132    -0.03010
C2037       C  0.89186400  0.52623848  0.99217446    -0.09650
C2038       C  0.90749704  0.99923293  0.00044054     0.06550
C2039       C  0.89013824  0.97306505  0.50852292    -0.03410
C2040       C  0.85811770  0.97445619  0.50795397    -0.07860
C2041       C  0.84244389  0.00147947  0.99965305     0.05660
C2042       C  0.85984287  0.52764886  0.99161843    -0.02890
Br2043     Br  0.84217144  0.56593724  0.97845103    -0.02580
H2044       H  0.90463189  0.54649612  0.98564028     0.09580
H2045       H  0.84539090  0.95418261  0.51451186     0.07590
Br2046     Br  0.90793302  0.93493020  0.52197683    -0.03010
C2047       C  0.60801530  0.97423994  0.50764616    -0.09650
C2048       C  0.59240370  0.00143628  0.99990273     0.06550
C2049       C  0.60983314  0.52768860  0.99226024    -0.03410
C2050       C  0.64184072  0.52616900  0.99263045    -0.07860
C2051       C  0.65745839  0.99897520  0.00034234     0.05660
C2052       C  0.64002968  0.97271082  0.50800771    -0.02890
Br2053     Br  0.65761451  0.93409839  0.52031739    -0.02580
H2054       H  0.59523646  0.95388908  0.51385579     0.09580
H2055       H  0.65459405  0.54653630  0.98642348     0.07590
Br2056     Br  0.59221955  0.56625834  0.97985200    -0.03010
C2057       C  0.75712466  0.72308544  0.64245601    -0.09650
C2058       C  0.75065078  0.75040185  0.65786944     0.06550
C2059       C  0.74430840  0.77711420  0.64094497    -0.03410
C2060       C  0.74440171  0.77616368  0.60878127    -0.07860
C2061       C  0.75059323  0.74870346  0.59289085     0.05660
C2062       C  0.75706565  0.72184048  0.61031377    -0.02890
Br2063     Br  0.76683375  0.68260610  0.59268951    -0.02580
H2064       H  0.76214466  0.70251189  0.65557338     0.09580
H2065       H  0.73946184  0.79706801  0.59622107     0.07590
Br2066     Br  0.73622704  0.81550702  0.66090478    -0.03010
C2067       C  0.75700850  0.72354392  0.85749716    -0.09650
C2068       C  0.75095330  0.75100493  0.84205441     0.06550
C2069       C  0.74522073  0.77779847  0.85893995    -0.03410
C2070       C  0.74554965  0.77679792  0.89110952    -0.07860
C2071       C  0.75136722  0.74920223  0.90702765     0.05660
C2072       C  0.75715457  0.72223820  0.88963085    -0.02890
Br2073     Br  0.76611789  0.68271977  0.90725114    -0.02580
H2074       H  0.76154413  0.70290206  0.84440265     0.09580
H2075       H  0.74104298  0.79775405  0.90364940     0.07590
Br2076     Br  0.73759089  0.81632637  0.83892140    -0.03010
C2077       C  0.74364260  0.52773096  0.64234536    -0.09650
C2078       C  0.74905517  0.00016621  0.65788497     0.06550
C2079       C  0.75469654  0.97331909  0.64108059    -0.03410
C2080       C  0.75487008  0.97434120  0.60893323    -0.07860
C2081       C  0.74964021  0.00200114  0.59288822     0.05660
C2082       C  0.74399049  0.52904089  0.61018579    -0.02890
Br2083     Br  0.73598944  0.56864539  0.59234909    -0.02580
H2084       H  0.73926698  0.54844508  0.65537765     0.09580
H2085       H  0.75922601  0.95328379  0.59651361     0.07590
Br2086     Br  0.76157176  0.93466634  0.66115367    -0.03010
C2087       C  0.76167854  0.97523458  0.85770498    -0.09650
C2088       C  0.74921250  0.00052257  0.84218965     0.06550
C2089       C  0.73734945  0.52520431  0.85911321    -0.03410
C2090       C  0.73787628  0.52420746  0.89126105    -0.07860
C2091       C  0.74993594  0.99868900  0.90712984     0.05660
C2092       C  0.76201261  0.97395412  0.88987467    -0.02890
Br2093     Br  0.78063258  0.93833532  0.90821280    -0.02580
H2094       H  0.77107751  0.95628177  0.84467514     0.09580
H2095       H  0.72866608  0.54351208  0.90387518     0.07590
Br2096     Br  0.72170628  0.56137911  0.83925878    -0.03010
C2097       C  0.72560858  0.85846339  0.76181275    -0.09650
C2098       C  0.75088188  0.84302587  0.74920170     0.06550
C2099       C  0.77527887  0.86050943  0.73707738    -0.03410
C2100       C  0.77405026  0.89254352  0.73810144    -0.07860
C2101       C  0.74879028  0.90798911  0.75074157     0.05660
C2102       C  0.72438816  0.89049773  0.76285584    -0.02890
Br2103     Br  0.68950842  0.90839064  0.78288758    -0.02580
H2104       H  0.70682224  0.84551650  0.77155902     0.09580
H2105       H  0.79283670  0.90548442  0.72834714     0.07590
Br2106     Br  0.81018571  0.84259220  0.71710504    -0.03010
C2107       C  0.77377229  0.60849708  0.76298077    -0.09650
C2108       C  0.74908751  0.59300134  0.74912912     0.06550
C2109       C  0.72503207  0.61045628  0.73589833    -0.03410
C2110       C  0.72600890  0.64252198  0.73703023    -0.07860
C2111       C  0.75070898  0.65802112  0.75085707     0.05660
C2112       C  0.77475270  0.64056271  0.76410187    -0.02890
Br2113     Br  0.80872678  0.65862898  0.78580899    -0.02580
H2114       H  0.79222988  0.59557302  0.77362514     0.09580
H2115       H  0.70754160  0.65544554  0.72640208     0.07590
Br2116     Br  0.69104728  0.59239236  0.71418897    -0.03010
C2117       C  0.97386002  0.76159581  0.60736418    -0.09650
C2118       C  0.99942342  0.74932339  0.59241446     0.06550
C2119       C  0.52413526  0.73804380  0.60995137    -0.03410
C2120       C  0.52289111  0.73888342  0.64206654    -0.07860
C2121       C  0.99709650  0.75070703  0.65735214     0.05660
C2122       C  0.97232854  0.76222765  0.63951153    -0.02890
Br2123     Br  0.93625280  0.78037801  0.65696033    -0.02580
H2124       H  0.95488164  0.77061277  0.59390538     0.09580
H2125       H  0.54222277  0.73007569  0.65512048     0.07590
Br2126     Br  0.56073399  0.72285262  0.59110918    -0.03010
C2127       C  0.52318053  0.76191445  0.85882468    -0.09650
C2128       C  0.99800286  0.74924695  0.84292910     0.06550
C2129       C  0.97386316  0.73605119  0.86009915    -0.03410
C2130       C  0.97528941  0.73596309  0.89224162    -0.07860
C2131       C  0.00010808  0.74915185  0.90787428     0.05660
C2132       C  0.52428071  0.76210705  0.89100807    -0.02890
Br2133     Br  0.55990270  0.77889950  0.91092725    -0.02580
H2134       H  0.54201628  0.77195183  0.84620759     0.09580
H2135       H  0.95676403  0.72574513  0.90514032     0.07590
Br2136     Br  0.93890409  0.71641876  0.84159769    -0.03010
C2137       C  0.97573045  0.98612295  0.60801097    -0.09650
C2138       C  0.00063869  0.49888760  0.59239967     0.06550
C2139       C  0.52524452  0.51130610  0.60926687    -0.03410
C2140       C  0.52452971  0.51105314  0.64142740    -0.07860
C2141       C  0.99931629  0.99884742  0.65735690     0.05660
C2142       C  0.97469868  0.98615717  0.64019275    -0.02890
Br2143     Br  0.93956349  0.96726617  0.65877241    -0.02580
H2144       H  0.95681833  0.97634867  0.59505901     0.09580
H2145       H  0.54372420  0.52072002  0.65400880     0.07590
Br2146     Br  0.56087508  0.52760250  0.58932136    -0.03010
C2147       C  0.51140831  0.52642746  0.85800975    -0.09650
C2148       C  0.50178890  0.50011036  0.84233997     0.06550
C2149       C  0.99203306  0.97438851  0.85908761    -0.03410
C2150       C  0.99178640  0.97535969  0.89123556    -0.07860
C2151       C  0.00092962  0.50188852  0.90729870     0.05660
C2152       C  0.51094102  0.52768274  0.89018034    -0.02890
Br2153     Br  0.52541133  0.56504097  0.90862657    -0.02580
H2154       H  0.51906224  0.54624136  0.84509655     0.09580
H2155       H  0.98418852  0.95524866  0.90367744     0.07590
Br2156     Br  0.97994366  0.93709575  0.83896646    -0.03010
C2157       C  0.52342863  0.85809617  0.76252561    -0.09650
C2158       C  0.99791125  0.84285387  0.74993818     0.06550
C2159       C  0.97347395  0.86051845  0.73777995    -0.03410
C2160       C  0.97502249  0.89251110  0.73849457    -0.07860
C2161       C  0.00054141  0.90774538  0.75102727     0.05660
C2162       C  0.52490398  0.89011916  0.76336941    -0.02890
Br2163     Br  0.56004464  0.90783506  0.78344524    -0.02580
H2164       H  0.54221179  0.84501779  0.77237114     0.09580
H2165       H  0.95622205  0.90558264  0.72866557     0.07590
Br2166     Br  0.93790712  0.84300639  0.71834761    -0.03010
C2167       C  0.52528747  0.64252687  0.75558286    -0.09650
C2168       C  0.99741619  0.65782448  0.74988381     0.06550
C2169       C  0.97082028  0.63999279  0.74437837    -0.03410
C2170       C  0.97272430  0.60798093  0.74469385    -0.07860
C2171       C  0.00060532  0.59269316  0.75032086     0.05660
C2172       C  0.52718170  0.61051701  0.75594639    -0.02890
Br2173     Br  0.56687926  0.59352036  0.76536569    -0.02580
H2174       H  0.54595891  0.65553754  0.76014846     0.09580
H2175       H  0.95205421  0.59495548  0.74015921     0.07590
Br2176     Br  0.93104116  0.65696724  0.73534035    -0.03010
loop_ 
_geom_bond_atom_site_label_1 
_geom_bond_atom_site_label_2 
_geom_bond_distance 
_geom_bond_site_symmetry_2 
_ccdc_geom_bond_type 
O1         Ni553   1.914   1_565  S
O1         C1099   1.279   1_565  A
O2           Ni9   1.915       .  S
O2         C1100   1.280       .  A
O3           Ni9   1.914       .  S
O3           C13   1.282       .  A
O4         Ni553   1.918       .  S
O4           C14   1.283       .  A
O5         Ni554   1.912       .  S
O5         C1102   1.279       .  A
O6          Ni10   1.914       .  S
O6         C1101   1.280       .  A
O7         Ni554   1.919   1_565  S
O7          C556   1.282   1_455  A
O8          Ni10   1.919       .  S
O8          C555   1.281       .  A
Ni9         O545   1.914       .  S
Ni9         O548   1.918       .  S
Ni9       Ni1098   2.385       .  S
Ni10        O549   1.912       .  S
Ni10        O551   1.919       .  S
Ni10      Ni1097   2.385   1_455  S
C11        O1089   1.279   1_445  A
C11         O552   1.281       .  A
C11         C244   1.467       .  S
C12        O1090   1.280       .  A
C12         O551   1.282   1_655  A
C12        C1325   1.484       .  S
C13        O1094   1.280       .  A
C13         C257   1.481       .  S
C14        O1093   1.279       .  A
C14         C267   1.488       .  S
O15         Ni23   1.919       .  S
O15        C1113   1.282   1_455  A
O16         Ni23   1.918       .  S
O16        C1114   1.282   1_455  A
O17         Ni23   1.916       .  S
O17        C1115   1.282   1_455  A
O18         Ni23   1.916       .  S
O18        C1116   1.282   1_455  A
O19         Ni24   1.913       .  S
O19          C28   1.279       .  A
O20         Ni24   1.913       .  S
O20          C27   1.280       .  A
O21         Ni24   1.915       .  S
O21          C26   1.280       .  A
O22         Ni24   1.914       .  S
O22          C25   1.280       .  A
Ni23      Ni1112   2.383   1_455  S
Ni24      Ni1111   2.383       .  S
C25        O1103   1.282       .  A
C25         C224   1.483       .  S
C26        O1104   1.282       .  A
C26         C217   1.485       .  S
C27        O1105   1.282       .  A
C27         C254   1.482       .  S
C28        O1106   1.282       .  A
C28         C264   1.488       .  S
O29        Ni581   1.917       .  S
O29         C583   1.280       .  A
O30         Ni37   1.917       .  S
O30          C40   1.280       .  A
O31         Ni37   1.917       .  S
O31          C41   1.281       .  A
O32        Ni581   1.913       .  S
O32          C42   1.280       .  A
O33        Ni582   1.923       .  S
O33          C42   1.283       .  A
O34         Ni38   1.916       .  S
O34          C41   1.282       .  A
O35        Ni582   1.915       .  S
O35         C584   1.279       .  A
O36         Ni38   1.914       .  S
O36          C39   1.280       .  A
Ni37        O573   1.917       .  S
Ni37        O576   1.913       .  S
Ni37        Ni38   2.389       .  S
Ni38        O577   1.923       .  S
Ni38        O579   1.915       .  S
C39         O573   1.280       .  A
C39         C184   1.467       .  S
C40         O579   1.279       .  A
C40         C174   1.465       .  S
C41         C197   1.483       .  S
C42         C204   1.484       .  S
O43         Ni51   1.915       .  S
O43          C53   1.280       .  A
O44         Ni51   1.915       .  S
O44          C54   1.280       .  A
O45         Ni51   1.916       .  S
O45          C55   1.280       .  A
O46         Ni51   1.914       .  S
O46          C56   1.280       .  A
O47         Ni52   1.923       .  S
O47          C56   1.283       .  A
O48         Ni52   1.916       .  S
O48          C55   1.282       .  A
O49         Ni52   1.915       .  S
O49          C54   1.280       .  A
O50         Ni52   1.915       .  S
O50          C53   1.280       .  A
Ni51        Ni52   2.389       .  S
C53         C164   1.464       .  S
C54         C154   1.465       .  S
C55         C194   1.483       .  S
C56         C207   1.485       .  S
O57       Ni1153   1.917       .  S
O57        C1699   1.282       .  A
O58        Ni337   1.919   1_554  S
O58         C612   1.281       .  A
O59         Ni65   1.912       .  S
O59          C69   1.279       .  A
O60       Ni1425   1.914   1_554  S
O60         C342   1.282       .  A
O61       Ni1426   1.912   1_455  S
O61         C614   1.279       .  A
O62         Ni66   1.915       .  S
O62         C885   1.282   1_545  A
O63       Ni1154   1.914   1_455  S
O63        C1156   1.280   1_545  A
O64        Ni338   1.916       .  S
O64          C67   1.280       .  A
Ni65       O1145   1.917       .  S
Ni65        O330   1.919       .  S
Ni65       O1420   1.914       .  S
Ni65       Ni882   2.384       .  S
Ni66       O1421   1.912       .  S
Ni66       O1151   1.914       .  S
Ni66        O336   1.916   1_554  S
Ni66       Ni881   2.384   1_544  S
C67        O1689   1.282   1_545  A
C67         C247   1.486       .  S
C68         O602   1.281       .  A
C68        O1151   1.280   1_565  A
C68         C234   1.468       .  S
C69         O878   1.282       .  A
C69         C134   1.484       .  S
C70         O332   1.282       .  A
C70         O605   1.279       .  A
C70         C144   1.485       .  S
O71         Ni79   1.917       .  S
O71          C81   1.281       .  A
O72        Ni351   1.920       .  S
O72          C82   1.281       .  A
O73         Ni79   1.915       .  S
O73          C83   1.280       .  A
O74       Ni1439   1.914   1_456  S
O74         C356   1.279   1_556  A
O75       Ni1440   1.922       .  S
O75          C84   1.284       .  A
O76         Ni80   1.924   1_556  S
O76         C355   1.283       .  A
O77         Ni80   1.914       .  S
O77          C82   1.279       .  A
O78        Ni352   1.916       .  S
O78          C81   1.280       .  A
Ni79        O344   1.920       .  S
Ni79       O1434   1.914       .  S
Ni79       Ni352   2.389       .  S
Ni80       O1435   1.922       .  S
Ni80        O350   1.916   1_554  S
Ni80       Ni351   2.389       .  S
C81         C227   1.469       .  S
C82         C214   1.469       .  S
C83         O348   1.283       .  A
C83         C114   1.479       .  S
C84         O346   1.279       .  A
C84         C124   1.488       .  S
O85         Ni93   1.917       .  S
O85          C95   1.280       .  A
O86        Ni365   1.919       .  S
O86          C96   1.283       .  A
O87         Ni93   1.913       .  S
O87          C97   1.279       .  A
O88        Ni365   1.914       .  S
O88         C370   1.282   1_554  A
O89        Ni366   1.913       .  S
O89         C642   1.279       .  A
O90         Ni94   1.913       .  S
O90         C913   1.282   1_546  A
O91         Ni94   1.914   1_554  S
O91         C640   1.279       .  A
O92        Ni366   1.916       .  S
O92         C639   1.282   1_545  A
Ni93        O358   1.919       .  S
Ni93        O360   1.914       .  S
Ni93       Ni910   2.381       .  S
Ni94        O361   1.913       .  S
Ni94        O364   1.916       .  S
Ni94       Ni909   2.381   1_546  S
C95         O636   1.282       .  A
C95         C187   1.484       .  S
C96         O635   1.279       .  A
C96         C177   1.490       .  S
C97         O906   1.282       .  A
C97         C147   1.486       .  S
C98         O360   1.282       .  A
C98         O633   1.279       .  A
C98         C137   1.486       .  S
O99        Ni107   1.915       .  S
O99         C109   1.280       .  A
O100       Ni379   1.916   1_556  S
O100        C382   1.280       .  A
O101       Ni379   1.922       .  S
O101        C111   1.283       .  A
O102       Ni107   1.925       .  S
O102        C112   1.284       .  A
O103       Ni108   1.907       .  S
O103        C112   1.277       .  A
O104       Ni380   1.909   1_554  S
O104        C111   1.278       .  A
O105       Ni108   1.919       .  S
O105        C110   1.283       .  A
O106       Ni380   1.922   1_554  S
O106        C381   1.282       .  A
Ni107       O372   1.916       .  S
Ni107       O373   1.922       .  S
Ni107      Ni108   2.382       .  S
Ni108       O376   1.909       .  S
Ni108       O378   1.922       .  S
C109        O378   1.282       .  A
C109        C117   1.478       .  S
C110        O372   1.280       .  A
C110        C127   1.488       .  S
C111        C157   1.489       .  S
C112        C167   1.489       .  S
C113        C118   1.401       .  A
C113        C386   1.404   1_554  A
C113        H120   1.083       .  S
C114        C115   1.412       .  A
C114        C385   1.404       .  A
C115        C116   1.399       .  A
C115       Br122   1.920       .  S
C116        C117   1.403       .  A
C116        H121   1.083       .  S
C117        C390   1.412       .  A
C118        C389   1.412       .  A
C118       Br119   1.921       .  S
C123        C124   1.406       .  A
C123        C128   1.400       .  A
C123        H130   1.083       .  S
C124        C397   1.416       .  A
C125        C126   1.399       .  A
C125        C396   1.416   1_554  A
C125       Br132   1.922       .  S
C126        C399   1.405   1_554  A
C126        H131   1.083       .  S
C127        C128   1.415       .  A
C127        C398   1.405       .  A
C128       Br129   1.922       .  S
C133        C138   1.397       .  A
C133        C678   1.405   1_545  A
C133        H140   1.083       .  S
C134        C677   1.405       .  A
C134        C407   1.415       .  A
C135        C136   1.397       .  A
C135        C406   1.415       .  A
C135       Br142   1.923       .  S
C136        C409   1.406   1_554  A
C136        H141   1.083       .  S
C137        C408   1.406       .  A
C137        C682   1.415       .  A
C138        C681   1.415       .  A
C138       Br139   1.923       .  S
C143        C148   1.397       .  A
C143        C416   1.406   1_554  A
C143        H150   1.083       .  S
C144        C415   1.406       .  A
C144        C689   1.415       .  A
C145        C146   1.397       .  A
C145        C688   1.415       .  A
C145       Br152   1.923       .  S
C146        C691   1.406   1_545  A
C146        H151   1.083       .  S
C147        C690   1.406       .  A
C147        C420   1.415       .  A
C148        C419   1.415       .  A
C148       Br149   1.923       .  S
C153        C154   1.396       .  A
C153        C158   1.398       .  A
C153        H160   1.084       .  S
C154        C155   1.403       .  A
C155        C156   1.399       .  A
C155       Br162   1.919       .  S
C156        C157   1.409       .  A
C156        H161   1.083       .  S
C157        C158   1.421       .  A
C158       Br159   1.923       .  S
C163        C164   1.396       .  A
C163        C168   1.398       .  A
C163        H170   1.084       .  S
C164        C165   1.403       .  A
C165        C166   1.399       .  A
C165       Br172   1.919       .  S
C166        C167   1.409       .  A
C166        H171   1.083       .  S
C167        C168   1.422       .  A
C168       Br169   1.924       .  S
C173        C178   1.399       .  A
C173        C718   1.397       .  A
C173        H180   1.084       .  S
C174        C175   1.403       .  A
C174        C717   1.397       .  A
C175        C176   1.398       .  A
C175       Br182   1.919       .  S
C176        C177   1.410       .  A
C176        H181   1.083       .  S
C177        C722   1.421       .  A
C178        C721   1.421       .  A
C178       Br179   1.923       .  S
C183        C184   1.400       .  A
C183        C188   1.399       .  A
C183        H190   1.084       .  S
C184        C729   1.404       .  A
C185        C186   1.398       .  A
C185        C728   1.404       .  A
C185       Br192   1.920       .  S
C186        C731   1.408   1_545  A
C186        H191   1.083       .  S
C187        C188   1.417       .  A
C187        C730   1.408       .  A
C188       Br189   1.922       .  S
C193        C194   1.405       .  A
C193        C198   1.398       .  A
C193        H200   1.083       .  S
C194        C195   1.413       .  A
C195        C196   1.398       .  A
C195       Br202   1.922       .  S
C196        C197   1.405       .  A
C196        H201   1.083       .  S
C197        C198   1.414       .  A
C198       Br199   1.922       .  S
C203        C204   1.404       .  A
C203        C208   1.400       .  A
C203        H210   1.083       .  S
C204        C205   1.414       .  A
C205        C206   1.400       .  A
C205       Br212   1.922       .  S
C206        C207   1.405       .  A
C206        H211   1.083       .  S
C207        C208   1.414       .  A
C208       Br209   1.922       .  S
C213        C214   1.399       .  A
C213        C218   1.400       .  A
C213        H220   1.084       .  S
C214       C1303   1.404       .  A
C215        C216   1.398       .  A
C215       C1302   1.404   1_455  A
C215       Br222   1.916       .  S
C216       C1305   1.407   1_455  A
C216        H221   1.083       .  S
C217        C218   1.417       .  A
C217       C1304   1.407       .  A
C218       Br219   1.920       .  S
C223        C228   1.400       .  A
C223       C1312   1.407   1_455  A
C223        H230   1.083       .  S
C224        C225   1.416       .  A
C224       C1311   1.407       .  A
C225        C226   1.398       .  A
C225       Br232   1.922       .  S
C226        C227   1.399       .  A
C226        H231   1.082       .  S
C227       C1316   1.406       .  A
C228       C1315   1.406       .  A
C228       Br229   1.920       .  S
C233        C238   1.400       .  A
C233        C778   1.400       .  A
C233        H240   1.084       .  S
C234        C777   1.400       .  A
C234       C1323   1.405   1_565  A
C235        C236   1.399       .  A
C235       C1322   1.405   1_545  A
C235       Br242   1.920       .  S
C236       C1869   1.407   1_445  A
C236        H241   1.083       .  S
C237       C1100   1.484       .  S
C237        C238   1.417       .  A
C237       C1868   1.407       .  A
C238       Br239   1.922       .  S
C243        C244   1.399       .  A
C243        C248   1.400       .  A
C243        H250   1.084       .  S
C244       C1877   1.404   1_445  A
C245        C246   1.398       .  A
C245       C1876   1.404       .  A
C245       Br252   1.920       .  S
C246        C791   1.408       .  A
C246        H251   1.083       .  S
C247        C790   1.408   1_545  A
C247       C1336   1.418       .  A
C248       C1335   1.418       .  A
C248       Br249   1.922       .  S
C253        C258   1.398       .  A
C253       C1342   1.405   1_455  A
C253        H260   1.083       .  S
C254        C255   1.414       .  A
C254       C1341   1.405       .  A
C255        C256   1.397       .  A
C255       Br262   1.921       .  S
C256        C257   1.404       .  A
C256        H261   1.083       .  S
C257       C1346   1.413       .  A
C258       C1345   1.413       .  A
C258       Br259   1.922       .  S
C263        C268   1.398       .  A
C263       C1352   1.406   1_455  A
C263        H270   1.083       .  S
C264        C265   1.416       .  A
C264       C1351   1.406       .  A
C265        C266   1.398       .  A
C265       Br272   1.923       .  S
C266        C267   1.406       .  A
C266        H271   1.083       .  S
C267       C1356   1.416       .  A
C268       C1355   1.416       .  A
C268       Br269   1.924       .  S
O273       Ni825   1.914   1_565  S
O273       C1371   1.279   1_565  A
O274       Ni281   1.915       .  S
O274       C1372   1.280       .  A
O275       Ni281   1.914       .  S
O275        C285   1.282       .  A
O276       Ni825   1.918       .  S
O276        C286   1.283       .  A
O277       Ni826   1.912       .  S
O277       C1374   1.279       .  A
O278       Ni282   1.914       .  S
O278       C1373   1.280       .  A
O279       Ni826   1.919   1_565  S
O279        C828   1.282   1_455  A
O280       Ni282   1.919       .  S
O280        C827   1.281       .  A
Ni281       O817   1.914       .  S
Ni281       O820   1.918       .  S
Ni281     Ni1370   2.385       .  S
Ni282       O821   1.912       .  S
Ni282       O823   1.919       .  S
Ni282     Ni1369   2.385   1_455  S
C283       O1361   1.279   1_445  A
C283        O824   1.281       .  A
C283        C516   1.467       .  S
C284       O1362   1.280       .  A
C284        O823   1.282   1_655  A
C284       C1597   1.484       .  S
C285       O1366   1.280       .  A
C285        C529   1.481       .  S
C286       O1365   1.279       .  A
C286        C539   1.488       .  S
O287       Ni295   1.919       .  S
O287       C1385   1.282   1_455  A
O288       Ni295   1.918       .  S
O288       C1386   1.282   1_455  A
O289       Ni295   1.916       .  S
O289       C1387   1.282   1_455  A
O290       Ni295   1.916       .  S
O290       C1388   1.282   1_455  A
O291       Ni296   1.913       .  S
O291        C300   1.279       .  A
O292       Ni296   1.913       .  S
O292        C299   1.280       .  A
O293       Ni296   1.915       .  S
O293        C298   1.280       .  A
O294       Ni296   1.914       .  S
O294        C297   1.280       .  A
Ni295     Ni1384   2.383   1_455  S
Ni296     Ni1383   2.383       .  S
C297       O1375   1.282       .  A
C297        C496   1.483       .  S
C298       O1376   1.282       .  A
C298        C489   1.485       .  S
C299       O1377   1.282       .  A
C299        C526   1.482       .  S
C300       O1378   1.282       .  A
C300        C536   1.488       .  S
O301       Ni853   1.917       .  S
O301        C855   1.280       .  A
O302       Ni309   1.917       .  S
O302        C312   1.280       .  A
O303       Ni309   1.917       .  S
O303        C313   1.281       .  A
O304       Ni853   1.913       .  S
O304        C314   1.280       .  A
O305       Ni854   1.923       .  S
O305        C314   1.283       .  A
O306       Ni310   1.916       .  S
O306        C313   1.282       .  A
O307       Ni854   1.915   1_565  S
O307        C856   1.279   1_565  A
O308       Ni310   1.914       .  S
O308        C311   1.280       .  A
Ni309       O845   1.917       .  S
Ni309       O848   1.913       .  S
Ni309      Ni310   2.389       .  S
Ni310       O849   1.923       .  S
Ni310       O851   1.915       .  S
C311        O845   1.280       .  A
C311        C456   1.467       .  S
C312        O851   1.279       .  A
C312        C446   1.465       .  S
C313        C469   1.483       .  S
C314        C476   1.484       .  S
O315       Ni323   1.915       .  S
O315        C325   1.280       .  A
O316       Ni323   1.915       .  S
O316        C326   1.280       .  A
O317       Ni323   1.916       .  S
O317        C327   1.280       .  A
O318       Ni323   1.914       .  S
O318        C328   1.280       .  A
O319       Ni324   1.923       .  S
O319        C328   1.283       .  A
O320       Ni324   1.916       .  S
O320        C327   1.282       .  A
O321       Ni324   1.915       .  S
O321        C326   1.280       .  A
O322       Ni324   1.915       .  S
O322        C325   1.280       .  A
Ni323      Ni324   2.389       .  S
C325        C436   1.464       .  S
C326        C426   1.465       .  S
C327        C466   1.483       .  S
C328        C479   1.485       .  S
O329      Ni1425   1.917       .  S
O329       C1971   1.282       .  A
O330        C884   1.281       .  A
O331       Ni337   1.912       .  S
O331        C341   1.279   1_556  A
O332      Ni1153   1.914       .  S
O333      Ni1154   1.912   1_455  S
O333        C886   1.279       .  A
O334       Ni338   1.915       .  S
O334        C613   1.282   1_545  A
O335      Ni1426   1.914   1_455  S
O335       C1428   1.280   1_545  A
O336        C339   1.280       .  A
Ni337      O1417   1.917       .  S
Ni337      O1148   1.914   1_556  S
Ni337      Ni610   2.384   1_556  S
Ni338      O1149   1.912       .  S
Ni338      O1423   1.914       .  S
Ni338      Ni609   2.384   1_545  S
C339       O1961   1.282   1_545  A
C339        C519   1.486       .  S
C340        O874   1.281       .  A
C340       O1423   1.280   1_565  A
C340        C506   1.468       .  S
C341        O606   1.282       .  A
C341        C406   1.484       .  S
C342        O877   1.279       .  A
C342        C416   1.485   1_554  S
O343       Ni351   1.917   1_556  S
O343        C353   1.281       .  A
O344        C354   1.281       .  A
O345       Ni351   1.915       .  S
O345        C355   1.280   1_554  A
O346      Ni1167   1.914   1_455  S
O347      Ni1168   1.922       .  S
O347        C356   1.284       .  A
O348       Ni352   1.924       .  S
O349       Ni352   1.914       .  S
O349        C354   1.279       .  A
O350        C353   1.280       .  A
Ni351      O1162   1.914   1_554  S
Ni352      O1163   1.922       .  S
C353        C499   1.469       .  S
C354        C486   1.469       .  S
C355        C386   1.479       .  S
C356        C396   1.488   1_554  S
O357       Ni365   1.917   1_556  S
O357        C367   1.280       .  A
O358        C368   1.283       .  A
O359       Ni365   1.913       .  S
O359        C369   1.279       .  A
O361        C914   1.279       .  A
O362       Ni366   1.913       .  S
O362        C641   1.282   1_545  A
O363       Ni366   1.914       .  S
O363        C912   1.279       .  A
O364        C911   1.282   1_545  A
Ni365      Ni638   2.381   1_554  S
Ni366      Ni637   2.381   1_545  S
C367        O908   1.282       .  A
C367        C459   1.484       .  S
C368        O907   1.279       .  A
C368        C449   1.490       .  S
C369        O634   1.282   1_554  A
C369        C419   1.486       .  S
C370        O905   1.279       .  A
C370        C409   1.486       .  S
O371       Ni379   1.915       .  S
O371        C381   1.280       .  A
O373        C383   1.283       .  A
O374       Ni379   1.925   1_556  S
O374        C384   1.284       .  A
O375       Ni380   1.907       .  S
O375        C384   1.277       .  A
O376        C383   1.278       .  A
O377       Ni380   1.919       .  S
O377        C382   1.283       .  A
Ni379      Ni380   2.382   1_554  S
C381        C389   1.478       .  S
C382        C399   1.488       .  S
C383        C429   1.489       .  S
C384        C439   1.489       .  S
C385        C390   1.401       .  A
C385        H392   1.083       .  S
C386        C387   1.412       .  A
C387        C388   1.399       .  A
C387       Br394   1.920       .  S
C388        C389   1.403   1_556  A
C388        H393   1.083       .  S
C390       Br391   1.921       .  S
C395        C396   1.406       .  A
C395        C400   1.400       .  A
C395        H402   1.083       .  S
C397        C398   1.399       .  A
C397       Br404   1.922       .  S
C398        H403   1.083       .  S
C399        C400   1.415       .  A
C400       Br401   1.922       .  S
C405        C950   1.405   1_546  A
C405        C410   1.397       .  A
C405        H412   1.083       .  S
C406        C949   1.405   1_554  A
C407        C408   1.397       .  A
C407       Br414   1.923       .  S
C408        H413   1.083       .  S
C409        C954   1.415       .  A
C410        C953   1.415       .  A
C410       Br411   1.923       .  S
C415        C420   1.397       .  A
C415        H422   1.083       .  S
C416        C961   1.415       .  A
C417        C960   1.415       .  A
C417        C418   1.397       .  A
C417       Br424   1.923       .  S
C418        C963   1.406   1_546  A
C418        H423   1.083       .  S
C419        C962   1.406   1_554  A
C420       Br421   1.923       .  S
C425        C426   1.396       .  A
C425        C430   1.398       .  A
C425        H432   1.084       .  S
C426        C427   1.403       .  A
C427        C428   1.399       .  A
C427       Br434   1.919       .  S
C428        C429   1.409       .  A
C428        H433   1.083       .  S
C429        C430   1.421       .  A
C430       Br431   1.923       .  S
C435        C436   1.396       .  A
C435        C440   1.398       .  A
C435        H442   1.084       .  S
C436        C437   1.403       .  A
C437        C438   1.399       .  A
C437       Br444   1.919       .  S
C438        C439   1.409       .  A
C438        H443   1.083       .  S
C439        C440   1.422       .  A
C440       Br441   1.924       .  S
C445        C990   1.397       .  A
C445        C450   1.399       .  A
C445        H452   1.084       .  S
C446        C989   1.397       .  A
C446        C447   1.403       .  A
C447        C448   1.398       .  A
C447       Br454   1.919       .  S
C448        C449   1.410       .  A
C448        H453   1.083       .  S
C449        C994   1.421       .  A
C450        C993   1.421       .  A
C450       Br451   1.923       .  S
C455        C456   1.400       .  A
C455        C460   1.399       .  A
C455        H462   1.084       .  S
C456       C1001   1.404       .  A
C457       C1000   1.404       .  A
C457        C458   1.398       .  A
C457       Br464   1.920       .  S
C458       C1003   1.408   1_545  A
C458        H463   1.083       .  S
C459       C1002   1.408       .  A
C459        C460   1.417       .  A
C460       Br461   1.922       .  S
C465        C466   1.405       .  A
C465        C470   1.398       .  A
C465        H472   1.083       .  S
C466        C467   1.413       .  A
C467        C468   1.398       .  A
C467       Br474   1.922       .  S
C468        C469   1.405       .  A
C468        H473   1.083       .  S
C469        C470   1.414       .  A
C470       Br471   1.922       .  S
C475        C476   1.404       .  A
C475        C480   1.400       .  A
C475        H482   1.083       .  S
C476        C477   1.414       .  A
C477        C478   1.400       .  A
C477       Br484   1.922       .  S
C478        C479   1.405       .  A
C478        H483   1.083       .  S
C479        C480   1.414       .  A
C480       Br481   1.922       .  S
C485        C486   1.399       .  A
C485        C490   1.400       .  A
C485        H492   1.084       .  S
C486       C1575   1.404       .  A
C487       C1574   1.404   1_455  A
C487        C488   1.398       .  A
C487       Br494   1.916       .  S
C488       C1577   1.407   1_455  A
C488        H493   1.083       .  S
C489       C1576   1.407       .  A
C489        C490   1.417       .  A
C490       Br491   1.920       .  S
C495       C1584   1.407   1_455  A
C495        C500   1.400       .  A
C495        H502   1.083       .  S
C496       C1583   1.407       .  A
C496        C497   1.416       .  A
C497        C498   1.398       .  A
C497       Br504   1.922       .  S
C498        C499   1.399       .  A
C498        H503   1.082       .  S
C499       C1588   1.406       .  A
C500       C1587   1.406       .  A
C500       Br501   1.920       .  S
C505       C1050   1.400       .  A
C505        C510   1.400       .  A
C505        H512   1.084       .  S
C506       C1049   1.400       .  A
C506       C1595   1.405   1_565  A
C507       C1594   1.405   1_545  A
C507        C508   1.399       .  A
C507       Br514   1.920       .  S
C508       C2141   1.407   1_445  A
C508        H513   1.083       .  S
C509       C1372   1.484       .  S
C509       C2140   1.407       .  A
C509        C510   1.417       .  A
C510       Br511   1.922       .  S
C515        C516   1.399       .  A
C515        C520   1.400       .  A
C515        H522   1.084       .  S
C516       C2149   1.404   1_445  A
C517       C2148   1.404       .  A
C517        C518   1.398       .  A
C517       Br524   1.920       .  S
C518       C1063   1.408       .  A
C518        H523   1.083       .  S
C519       C1062   1.408   1_545  A
C519       C1608   1.418       .  A
C520       C1607   1.418       .  A
C520       Br521   1.922       .  S
C525       C1614   1.405   1_455  A
C525        C530   1.398       .  A
C525        H532   1.083       .  S
C526       C1613   1.405       .  A
C526        C527   1.414       .  A
C527        C528   1.397       .  A
C527       Br534   1.921       .  S
C528        C529   1.404       .  A
C528        H533   1.083       .  S
C529       C1618   1.413       .  A
C530       C1617   1.413       .  A
C530       Br531   1.922       .  S
C535       C1624   1.406   1_455  A
C535        C540   1.398       .  A
C535        H542   1.083       .  S
C536       C1623   1.406       .  A
C536        C537   1.416       .  A
C537        C538   1.398       .  A
C537       Br544   1.923       .  S
C538        C539   1.406       .  A
C538        H543   1.083       .  S
C539       C1628   1.416       .  A
C540       C1627   1.416       .  A
C540       Br541   1.924       .  S
O545       C1643   1.279       .  A
O546       Ni553   1.915       .  S
O546       C1644   1.280   1_545  A
O547       Ni553   1.914   1_565  S
O547        C557   1.282       .  A
O548        C558   1.283       .  A
O549       C1646   1.279       .  A
O550       Ni554   1.914   1_565  S
O550       C1645   1.280       .  A
O552       Ni554   1.919       .  S
Ni553     Ni1642   2.385       .  S
Ni554     Ni1641   2.385   1_455  S
C555       O1633   1.279   1_455  A
C555        C788   1.467       .  S
C556       O1634   1.280   1_565  A
C556       C1869   1.484       .  S
C557       O1638   1.280       .  A
C557        C801   1.481       .  S
C558       O1637   1.279       .  A
C558        C811   1.488       .  S
O559       Ni567   1.919       .  S
O559       C1657   1.282   1_455  A
O560       Ni567   1.918       .  S
O560       C1658   1.282   1_455  A
O561       Ni567   1.916       .  S
O561       C1659   1.282   1_455  A
O562       Ni567   1.916       .  S
O562       C1660   1.282   1_455  A
O563       Ni568   1.913       .  S
O563        C572   1.279       .  A
O564       Ni568   1.913       .  S
O564        C571   1.280       .  A
O565       Ni568   1.915       .  S
O565        C570   1.280       .  A
O566       Ni568   1.914       .  S
O566        C569   1.280       .  A
Ni567     Ni1656   2.383   1_455  S
Ni568     Ni1655   2.383       .  S
C569       O1647   1.282       .  A
C569        C768   1.483       .  S
C570       O1648   1.282       .  A
C570        C761   1.485       .  S
C571       O1649   1.282       .  A
C571        C798   1.482       .  S
C572       O1650   1.282       .  A
C572        C808   1.488       .  S
O574       Ni581   1.917       .  S
O574        C584   1.280       .  A
O575       Ni581   1.917   1_565  S
O575        C585   1.281       .  A
O576        C586   1.280       .  A
O577        C586   1.283       .  A
O578       Ni582   1.916   1_565  S
O578        C585   1.282       .  A
O580       Ni582   1.914       .  S
O580        C583   1.280       .  A
Ni581      Ni582   2.389       .  S
C583        C728   1.467       .  S
C584        C718   1.465       .  S
C585        C741   1.483       .  S
C586        C748   1.484       .  S
O587       Ni595   1.915       .  S
O587        C597   1.280       .  A
O588       Ni595   1.915       .  S
O588        C598   1.280       .  A
O589       Ni595   1.916       .  S
O589        C599   1.280       .  A
O590       Ni595   1.914       .  S
O590        C600   1.280       .  A
O591       Ni596   1.923       .  S
O591        C600   1.283       .  A
O592       Ni596   1.916       .  S
O592        C599   1.282       .  A
O593       Ni596   1.915       .  S
O593        C598   1.280       .  A
O594       Ni596   1.915       .  S
O594        C597   1.280       .  A
Ni595      Ni596   2.389       .  S
C597        C708   1.464       .  S
C598        C698   1.465       .  S
C599        C738   1.483       .  S
C600        C751   1.485       .  S
O601      Ni1697   1.917       .  S
O601       C1155   1.282   1_565  A
O602       Ni881   1.919   1_554  S
O603       Ni609   1.912       .  S
O603        C613   1.279       .  A
O604      Ni1969   1.914   1_554  S
O604        C886   1.282   1_565  A
O605      Ni1970   1.912   1_455  S
O606       Ni610   1.915       .  S
O607      Ni1698   1.914   1_455  S
O607       C1700   1.280       .  A
O608       Ni882   1.916       .  S
O608        C611   1.280       .  A
Ni609      O1689   1.917       .  S
Ni609       O874   1.919       .  S
Ni609      O1964   1.914       .  S
Ni610      O1965   1.912       .  S
Ni610      O1695   1.914       .  S
Ni610       O880   1.916   1_554  S
C611       O1145   1.282       .  A
C611        C791   1.486       .  S
C612       O1695   1.280       .  A
C612        C778   1.468       .  S
C613        C678   1.484       .  S
C614        O876   1.282   1_545  A
C614        C688   1.485       .  S
O615       Ni623   1.917       .  S
O615        C625   1.281       .  A
O616       Ni895   1.920       .  S
O616        C626   1.281       .  A
O617       Ni623   1.915       .  S
O617        C627   1.280       .  A
O618      Ni1983   1.914   1_456  S
O618        C900   1.279   1_556  A
O619      Ni1984   1.922       .  S
O619        C628   1.284       .  A
O620       Ni624   1.924   1_556  S
O620        C899   1.283       .  A
O621       Ni624   1.914       .  S
O621        C626   1.279       .  A
O622       Ni896   1.916       .  S
O622        C625   1.280       .  A
Ni623       O888   1.920       .  S
Ni623      O1978   1.914       .  S
Ni623      Ni896   2.389       .  S
Ni624      O1979   1.922       .  S
Ni624       O894   1.916   1_554  S
Ni624      Ni895   2.389       .  S
C625        C771   1.469       .  S
C626        C758   1.469       .  S
C627        O892   1.283       .  A
C627        C658   1.479       .  S
C628        O890   1.279       .  A
C628        C668   1.488       .  S
O629       Ni637   1.917       .  S
O629        C639   1.280       .  A
O630       Ni909   1.919       .  S
O630        C640   1.283   1_565  A
O631       Ni637   1.913       .  S
O631        C641   1.279       .  A
O632       Ni909   1.914       .  S
O632        C914   1.282   1_564  A
O633       Ni910   1.913       .  S
O634       Ni638   1.913       .  S
O635       Ni638   1.914   1_554  S
O636       Ni910   1.916       .  S
Ni637       O902   1.919       .  S
Ni637       O904   1.914       .  S
Ni638       O905   1.913       .  S
Ni638       O908   1.916       .  S
C639        C731   1.484       .  S
C640        C721   1.490       .  S
C641        C691   1.486       .  S
C642        O904   1.282   1_545  A
C642        C681   1.486       .  S
O643       Ni651   1.915       .  S
O643        C653   1.280       .  A
O644       Ni923   1.916   1_556  S
O644        C926   1.280       .  A
O645       Ni923   1.922       .  S
O645        C655   1.283       .  A
O646       Ni651   1.925       .  S
O646        C656   1.284       .  A
O647       Ni652   1.907       .  S
O647        C656   1.277       .  A
O648       Ni924   1.909   1_554  S
O648        C655   1.278       .  A
O649       Ni652   1.919       .  S
O649        C654   1.283       .  A
O650       Ni924   1.922   1_554  S
O650        C925   1.282       .  A
Ni651       O916   1.916       .  S
Ni651       O917   1.922       .  S
Ni651      Ni652   2.382       .  S
Ni652       O920   1.909       .  S
Ni652       O922   1.922       .  S
C653        O922   1.282       .  A
C653        C661   1.478       .  S
C654        O916   1.280       .  A
C654        C671   1.488       .  S
C655        C701   1.489       .  S
C656        C711   1.489       .  S
C657        C930   1.404   1_554  A
C657        C662   1.401       .  A
C657        H664   1.083       .  S
C658        C929   1.404       .  A
C658        C659   1.412       .  A
C659        C660   1.399       .  A
C659       Br666   1.920       .  S
C660        C661   1.403       .  A
C660        H665   1.083       .  S
C661        C934   1.412       .  A
C662        C933   1.412       .  A
C662       Br663   1.921       .  S
C667        C668   1.406       .  A
C667        C672   1.400       .  A
C667        H674   1.083       .  S
C668        C941   1.416       .  A
C669        C940   1.416   1_554  A
C669        C670   1.399       .  A
C669       Br676   1.922       .  S
C670        C943   1.405   1_554  A
C670        H675   1.083       .  S
C671        C942   1.405       .  A
C671        C672   1.415       .  A
C672       Br673   1.922       .  S
C677        C682   1.397       .  A
C677        H684   1.083       .  S
C678        C951   1.415       .  A
C679        C950   1.415       .  A
C679        C680   1.397       .  A
C679       Br686   1.923       .  S
C680        C953   1.406   1_564  A
C680        H685   1.083       .  S
C681        C952   1.406   1_545  A
C682       Br683   1.923       .  S
C687        C960   1.406   1_564  A
C687        C692   1.397       .  A
C687        H694   1.083       .  S
C688        C959   1.406   1_545  A
C689        C690   1.397       .  A
C689       Br696   1.923       .  S
C690        H695   1.083       .  S
C691        C964   1.415       .  A
C692        C963   1.415       .  A
C692       Br693   1.923       .  S
C697        C698   1.396       .  A
C697        C702   1.398       .  A
C697        H704   1.084       .  S
C698        C699   1.403       .  A
C699        C700   1.399       .  A
C699       Br706   1.919       .  S
C700        C701   1.409       .  A
C700        H705   1.083       .  S
C701        C702   1.421       .  A
C702       Br703   1.923       .  S
C707        C708   1.396       .  A
C707        C712   1.398       .  A
C707        H714   1.084       .  S
C708        C709   1.403       .  A
C709        C710   1.399       .  A
C709       Br716   1.919       .  S
C710        C711   1.409       .  A
C710        H715   1.083       .  S
C711        C712   1.422       .  A
C712       Br713   1.924       .  S
C717        C722   1.399       .  A
C717        H724   1.084       .  S
C718        C719   1.403   1_545  A
C719        C720   1.398       .  A
C719       Br726   1.919       .  S
C720        C721   1.410   1_565  A
C720        H725   1.083       .  S
C722       Br723   1.923       .  S
C727        C728   1.400   1_565  A
C727        C732   1.399       .  A
C727        H734   1.084       .  S
C729        C730   1.398       .  A
C729       Br736   1.920       .  S
C730        H735   1.083       .  S
C731        C732   1.417       .  A
C732       Br733   1.922       .  S
C737        C738   1.405       .  A
C737        C742   1.398       .  A
C737        H744   1.083       .  S
C738        C739   1.413       .  A
C739        C740   1.398       .  A
C739       Br746   1.922       .  S
C740        C741   1.405       .  A
C740        H745   1.083       .  S
C741        C742   1.414       .  A
C742       Br743   1.922       .  S
C747        C748   1.404       .  A
C747        C752   1.400       .  A
C747        H754   1.083       .  S
C748        C749   1.414       .  A
C749        C750   1.400       .  A
C749       Br756   1.922       .  S
C750        C751   1.405       .  A
C750        H755   1.083       .  S
C751        C752   1.414       .  A
C752       Br753   1.922       .  S
C757        C758   1.399       .  A
C757        C762   1.400       .  A
C757        H764   1.084       .  S
C758       C1847   1.404       .  A
C759       C1846   1.404   1_455  A
C759        C760   1.398       .  A
C759       Br766   1.916       .  S
C760       C1849   1.407   1_455  A
C760        H765   1.083       .  S
C761       C1848   1.407       .  A
C761        C762   1.417       .  A
C762       Br763   1.920       .  S
C767       C1856   1.407   1_455  A
C767        C772   1.400       .  A
C767        H774   1.083       .  S
C768       C1855   1.407       .  A
C768        C769   1.416       .  A
C769        C770   1.398       .  A
C769       Br776   1.922       .  S
C770        C771   1.399       .  A
C770        H775   1.082       .  S
C771       C1860   1.406       .  A
C772       C1859   1.406       .  A
C772       Br773   1.920       .  S
C777        C782   1.400       .  A
C777        H784   1.084       .  S
C778       C1867   1.405       .  A
C779       C1866   1.405       .  A
C779        C780   1.399       .  A
C779       Br786   1.920       .  S
C780       C1325   1.407   1_455  A
C780        H785   1.083       .  S
C781       C1644   1.484       .  S
C781       C1324   1.407   1_565  A
C781        C782   1.417       .  A
C782       Br783   1.922       .  S
C787        C788   1.399       .  A
C787        C792   1.400       .  A
C787        H794   1.084       .  S
C788       C1333   1.404   1_455  A
C789       C1332   1.404   1_565  A
C789        C790   1.398       .  A
C789       Br796   1.920       .  S
C790        H795   1.083       .  S
C791       C1880   1.418       .  A
C792       C1879   1.418       .  A
C792       Br793   1.922       .  S
C797       C1886   1.405   1_455  A
C797        C802   1.398       .  A
C797        H804   1.083       .  S
C798       C1885   1.405       .  A
C798        C799   1.414       .  A
C799        C800   1.397       .  A
C799       Br806   1.921       .  S
C800        C801   1.404       .  A
C800        H805   1.083       .  S
C801       C1890   1.413       .  A
C802       C1889   1.413       .  A
C802       Br803   1.922       .  S
C807       C1896   1.406   1_455  A
C807        C812   1.398       .  A
C807        H814   1.083       .  S
C808       C1895   1.406       .  A
C808        C809   1.416       .  A
C809        C810   1.398       .  A
C809       Br816   1.923       .  S
C810        C811   1.406       .  A
C810        H815   1.083       .  S
C811       C1900   1.416       .  A
C812       C1899   1.416       .  A
C812       Br813   1.924       .  S
O817       C1915   1.279       .  A
O818       Ni825   1.915       .  S
O818       C1916   1.280   1_545  A
O819       Ni825   1.914   1_565  S
O819        C829   1.282       .  A
O820        C830   1.283       .  A
O821       C1918   1.279       .  A
O822       Ni826   1.914   1_565  S
O822       C1917   1.280       .  A
O824       Ni826   1.919       .  S
Ni825     Ni1914   2.385       .  S
Ni826     Ni1913   2.385   1_455  S
C827       O1905   1.279   1_455  A
C827       C1060   1.467       .  S
C828       O1906   1.280   1_565  A
C828       C2141   1.484       .  S
C829       O1910   1.280       .  A
C829       C1073   1.481       .  S
C830       O1909   1.279       .  A
C830       C1083   1.488       .  S
O831       Ni839   1.919       .  S
O831       C1929   1.282   1_455  A
O832       Ni839   1.918       .  S
O832       C1930   1.282   1_455  A
O833       Ni839   1.916       .  S
O833       C1931   1.282   1_455  A
O834       Ni839   1.916       .  S
O834       C1932   1.282   1_455  A
O835       Ni840   1.913       .  S
O835        C844   1.279       .  A
O836       Ni840   1.913       .  S
O836        C843   1.280       .  A
O837       Ni840   1.915       .  S
O837        C842   1.280       .  A
O838       Ni840   1.914       .  S
O838        C841   1.280       .  A
Ni839     Ni1928   2.383   1_455  S
Ni840     Ni1927   2.383       .  S
C841       O1919   1.282       .  A
C841       C1040   1.483       .  S
C842       O1920   1.282       .  A
C842       C1033   1.485       .  S
C843       O1921   1.282       .  A
C843       C1070   1.482       .  S
C844       O1922   1.282       .  A
C844       C1080   1.488       .  S
O846       Ni853   1.917       .  S
O846        C856   1.280       .  A
O847       Ni853   1.917   1_565  S
O847        C857   1.281       .  A
O848        C858   1.280       .  A
O849        C858   1.283       .  A
O850       Ni854   1.916   1_565  S
O850        C857   1.282       .  A
O852       Ni854   1.914       .  S
O852        C855   1.280       .  A
Ni853      Ni854   2.389       .  S
C855       C1000   1.467       .  S
C856        C990   1.465       .  S
C857       C1013   1.483       .  S
C858       C1020   1.484       .  S
O859       Ni867   1.915       .  S
O859        C869   1.280       .  A
O860       Ni867   1.915       .  S
O860        C870   1.280       .  A
O861       Ni867   1.916       .  S
O861        C871   1.280       .  A
O862       Ni867   1.914       .  S
O862        C872   1.280       .  A
O863       Ni868   1.923       .  S
O863        C872   1.283       .  A
O864       Ni868   1.916       .  S
O864        C871   1.282       .  A
O865       Ni868   1.915       .  S
O865        C870   1.280       .  A
O866       Ni868   1.915       .  S
O866        C869   1.280       .  A
Ni867      Ni868   2.389       .  S
C869        C980   1.464       .  S
C870        C970   1.465       .  S
C871       C1010   1.483       .  S
C872       C1023   1.485       .  S
O873      Ni1969   1.917       .  S
O873       C1427   1.282   1_565  A
O875       Ni881   1.912       .  S
O875        C885   1.279   1_556  A
O876      Ni1697   1.914       .  S
O877      Ni1698   1.912   1_455  S
O878       Ni882   1.915       .  S
O879      Ni1970   1.914   1_455  S
O879       C1972   1.280       .  A
O880        C883   1.280       .  A
Ni881      O1961   1.917       .  S
Ni881      O1692   1.914   1_556  S
Ni882      O1693   1.912       .  S
Ni882      O1967   1.914       .  S
C883       O1417   1.282       .  A
C883       C1063   1.486       .  S
C884       O1967   1.280       .  A
C884       C1050   1.468       .  S
C885        C950   1.484       .  S
C886        C960   1.485   1_554  S
O887       Ni895   1.917   1_556  S
O887        C897   1.281       .  A
O888        C898   1.281       .  A
O889       Ni895   1.915       .  S
O889        C899   1.280   1_554  A
O890      Ni1711   1.914   1_455  S
O891      Ni1712   1.922       .  S
O891        C900   1.284       .  A
O892       Ni896   1.924       .  S
O893       Ni896   1.914       .  S
O893        C898   1.279       .  A
O894        C897   1.280       .  A
Ni895      O1706   1.914   1_554  S
Ni896      O1707   1.922       .  S
C897       C1043   1.469       .  S
C898       C1030   1.469       .  S
C899        C930   1.479       .  S
C900        C940   1.488   1_554  S
O901       Ni909   1.917   1_556  S
O901        C911   1.280       .  A
O902        C912   1.283   1_565  A
O903       Ni909   1.913       .  S
O903        C913   1.279       .  A
O906       Ni910   1.913       .  S
O907       Ni910   1.914       .  S
C911       C1003   1.484       .  S
C912        C993   1.490       .  S
C913        C963   1.486       .  S
C914        C953   1.486       .  S
O915       Ni923   1.915       .  S
O915        C925   1.280       .  A
O917        C927   1.283       .  A
O918       Ni923   1.925   1_556  S
O918        C928   1.284       .  A
O919       Ni924   1.907       .  S
O919        C928   1.277       .  A
O920        C927   1.278       .  A
O921       Ni924   1.919       .  S
O921        C926   1.283       .  A
Ni923      Ni924   2.382   1_554  S
C925        C933   1.478       .  S
C926        C943   1.488       .  S
C927        C973   1.489       .  S
C928        C983   1.489       .  S
C929        C934   1.401       .  A
C929        H936   1.083       .  S
C930        C931   1.412       .  A
C931        C932   1.399       .  A
C931       Br938   1.920       .  S
C932        C933   1.403   1_556  A
C932        H937   1.083       .  S
C934       Br935   1.921       .  S
C939        C940   1.406       .  A
C939        C944   1.400       .  A
C939        H946   1.083       .  S
C941        C942   1.399       .  A
C941       Br948   1.922       .  S
C942        H947   1.083       .  S
C943        C944   1.415       .  A
C944       Br945   1.922       .  S
C949        C954   1.397       .  A
C949        H956   1.083       .  S
C951        C952   1.397       .  A
C951       Br958   1.923       .  S
C952        H957   1.083       .  S
C954       Br955   1.923       .  S
C959        C964   1.397       .  A
C959        H966   1.083       .  S
C961        C962   1.397       .  A
C961       Br968   1.923       .  S
C962        H967   1.083       .  S
C964       Br965   1.923       .  S
C969        C970   1.396       .  A
C969        C974   1.398       .  A
C969        H976   1.084       .  S
C970        C971   1.403       .  A
C971        C972   1.399       .  A
C971       Br978   1.919       .  S
C972        C973   1.409       .  A
C972        H977   1.083       .  S
C973        C974   1.421       .  A
C974       Br975   1.923       .  S
C979        C980   1.396       .  A
C979        C984   1.398       .  A
C979        H986   1.084       .  S
C980        C981   1.403       .  A
C981        C982   1.399       .  A
C981       Br988   1.919       .  S
C982        C983   1.409       .  A
C982        H987   1.083       .  S
C983        C984   1.422       .  A
C984       Br985   1.924       .  S
C989        C994   1.399       .  A
C989        H996   1.084       .  S
C990        C991   1.403   1_545  A
C991        C992   1.398       .  A
C991       Br998   1.919       .  S
C992        C993   1.410   1_565  A
C992        H997   1.083       .  S
C994       Br995   1.923       .  S
C999       C1000   1.400   1_565  A
C999       C1004   1.399       .  A
C999       H1006   1.084       .  S
C1001      C1002   1.398       .  A
C1001     Br1008   1.920       .  S
C1002      H1007   1.083       .  S
C1003      C1004   1.417       .  A
C1004     Br1005   1.922       .  S
C1009      C1010   1.405       .  A
C1009      C1014   1.398       .  A
C1009      H1016   1.083       .  S
C1010      C1011   1.413       .  A
C1011      C1012   1.398       .  A
C1011     Br1018   1.922       .  S
C1012      C1013   1.405       .  A
C1012      H1017   1.083       .  S
C1013      C1014   1.414       .  A
C1014     Br1015   1.922       .  S
C1019      C1020   1.404       .  A
C1019      C1024   1.400       .  A
C1019      H1026   1.083       .  S
C1020      C1021   1.414       .  A
C1021      C1022   1.400       .  A
C1021     Br1028   1.922       .  S
C1022      C1023   1.405       .  A
C1022      H1027   1.083       .  S
C1023      C1024   1.414       .  A
C1024     Br1025   1.922       .  S
C1029      C1030   1.399       .  A
C1029      C1034   1.400       .  A
C1029      H1036   1.084       .  S
C1030      C2119   1.404       .  A
C1031      C2118   1.404   1_455  A
C1031      C1032   1.398       .  A
C1031     Br1038   1.916       .  S
C1032      C2121   1.407   1_455  A
C1032      H1037   1.083       .  S
C1033      C2120   1.407       .  A
C1033      C1034   1.417       .  A
C1034     Br1035   1.920       .  S
C1039      C2128   1.407   1_455  A
C1039      C1044   1.400       .  A
C1039      H1046   1.083       .  S
C1040      C2127   1.407       .  A
C1040      C1041   1.416       .  A
C1041      C1042   1.398       .  A
C1041     Br1048   1.922       .  S
C1042      C1043   1.399       .  A
C1042      H1047   1.082       .  S
C1043      C2132   1.406       .  A
C1044      C2131   1.406       .  A
C1044     Br1045   1.920       .  S
C1049      C1054   1.400       .  A
C1049      H1056   1.084       .  S
C1050      C2139   1.405       .  A
C1051      C2138   1.405       .  A
C1051      C1052   1.399       .  A
C1051     Br1058   1.920       .  S
C1052      C1597   1.407   1_455  A
C1052      H1057   1.083       .  S
C1053      C1916   1.484       .  S
C1053      C1596   1.407   1_565  A
C1053      C1054   1.417       .  A
C1054     Br1055   1.922       .  S
C1059      C1060   1.399       .  A
C1059      C1064   1.400       .  A
C1059      H1066   1.084       .  S
C1060      C1605   1.404   1_455  A
C1061      C1604   1.404   1_565  A
C1061      C1062   1.398       .  A
C1061     Br1068   1.920       .  S
C1062      H1067   1.083       .  S
C1063      C2152   1.418       .  A
C1064      C2151   1.418       .  A
C1064     Br1065   1.922       .  S
C1069      C2158   1.405   1_455  A
C1069      C1074   1.398       .  A
C1069      H1076   1.083       .  S
C1070      C2157   1.405       .  A
C1070      C1071   1.414       .  A
C1071      C1072   1.397       .  A
C1071     Br1078   1.921       .  S
C1072      C1073   1.404       .  A
C1072      H1077   1.083       .  S
C1073      C2162   1.413       .  A
C1074      C2161   1.413       .  A
C1074     Br1075   1.922       .  S
C1079      C2168   1.406   1_455  A
C1079      C1084   1.398       .  A
C1079      H1086   1.083       .  S
C1080      C2167   1.406       .  A
C1080      C1081   1.416       .  A
C1081      C1082   1.398       .  A
C1081     Br1088   1.923       .  S
C1082      C1083   1.406       .  A
C1082      H1087   1.083       .  S
C1083      C2172   1.416       .  A
C1084      C2171   1.416       .  A
C1084     Br1085   1.924       .  S
O1089     Ni1641   1.914   1_565  S
O1090     Ni1097   1.915       .  S
O1091     Ni1097   1.914       .  S
O1091      C1101   1.282   1_655  A
O1092     Ni1641   1.918       .  S
O1092      C1102   1.283   1_655  A
O1093     Ni1642   1.912       .  S
O1094     Ni1098   1.914       .  S
O1095     Ni1642   1.919   1_565  S
O1095      C1644   1.282       .  A
O1096     Ni1098   1.919       .  S
O1096      C1643   1.281       .  A
Ni1097     O1633   1.914       .  S
Ni1097     O1636   1.918       .  S
Ni1098     O1637   1.912       .  S
Ni1098     O1639   1.919       .  S
C1099      O1640   1.281       .  A
C1099      C1332   1.467       .  S
C1100      O1639   1.282       .  A
C1101      C1345   1.481       .  S
C1102      C1355   1.488       .  S
O1103     Ni1111   1.919       .  S
O1104     Ni1111   1.918       .  S
O1105     Ni1111   1.916       .  S
O1106     Ni1111   1.916       .  S
O1107     Ni1112   1.913       .  S
O1107      C1116   1.279       .  A
O1108     Ni1112   1.913       .  S
O1108      C1115   1.280       .  A
O1109     Ni1112   1.915       .  S
O1109      C1114   1.280       .  A
O1110     Ni1112   1.914       .  S
O1110      C1113   1.280       .  A
C1113      C1312   1.483       .  S
C1114      C1305   1.485       .  S
C1115      C1342   1.482       .  S
C1116      C1352   1.488       .  S
O1117     Ni1669   1.917       .  S
O1117      C1671   1.280       .  A
O1118     Ni1125   1.917       .  S
O1118      C1128   1.280       .  A
O1119     Ni1125   1.917       .  S
O1119      C1129   1.281       .  A
O1120     Ni1669   1.913       .  S
O1120      C1130   1.280       .  A
O1121     Ni1670   1.923       .  S
O1121      C1130   1.283       .  A
O1122     Ni1126   1.916       .  S
O1122      C1129   1.282       .  A
O1123     Ni1670   1.915       .  S
O1123      C1672   1.279       .  A
O1124     Ni1126   1.914       .  S
O1124      C1127   1.280       .  A
Ni1125     O1661   1.917       .  S
Ni1125     O1664   1.913       .  S
Ni1125    Ni1126   2.389       .  S
Ni1126     O1665   1.923       .  S
Ni1126     O1667   1.915       .  S
C1127      O1661   1.280       .  A
C1127      C1272   1.467       .  S
C1128      O1667   1.279       .  A
C1128      C1262   1.465       .  S
C1129      C1285   1.483       .  S
C1130      C1292   1.484       .  S
O1131     Ni1139   1.915       .  S
O1131      C1141   1.280       .  A
O1132     Ni1139   1.915       .  S
O1132      C1142   1.280       .  A
O1133     Ni1139   1.916       .  S
O1133      C1143   1.280       .  A
O1134     Ni1139   1.914       .  S
O1134      C1144   1.280       .  A
O1135     Ni1140   1.923       .  S
O1135      C1144   1.283       .  A
O1136     Ni1140   1.916       .  S
O1136      C1143   1.282       .  A
O1137     Ni1140   1.915       .  S
O1137      C1142   1.280       .  A
O1138     Ni1140   1.915       .  S
O1138      C1141   1.280       .  A
Ni1139    Ni1140   2.389       .  S
C1141      C1252   1.464       .  S
C1142      C1242   1.465       .  S
C1143      C1282   1.483       .  S
C1144      C1295   1.485       .  S
O1146     Ni1425   1.919   1_654  S
O1146      C1700   1.281   1_655  A
O1147     Ni1153   1.912   1_655  S
O1147      C1157   1.279       .  A
O1148      C1430   1.282       .  A
O1149      C1702   1.279       .  A
O1150     Ni1154   1.915       .  S
O1150      C1973   1.282   1_545  A
O1152     Ni1426   1.916       .  S
O1152      C1155   1.280   1_655  A
Ni1153     O1418   1.919       .  S
Ni1153    Ni1970   2.384   1_455  S
Ni1154     O1424   1.916   1_554  S
Ni1154    Ni1969   2.384   1_644  S
C1155      C1335   1.486       .  S
C1156      O1690   1.281   1_455  A
C1156      C1322   1.468       .  S
C1157      O1966   1.282       .  A
C1157      C1222   1.484       .  S
C1158      O1420   1.282       .  A
C1158      O1693   1.279       .  A
C1158      C1232   1.485       .  S
O1159     Ni1167   1.917       .  S
O1159      C1169   1.281   1_655  A
O1160     Ni1439   1.920   1_455  S
O1160      C1170   1.281   1_455  A
O1161     Ni1167   1.915       .  S
O1161      C1171   1.280       .  A
O1162      C1444   1.279   1_556  A
O1163      C1172   1.284       .  A
O1164     Ni1168   1.924   1_656  S
O1164      C1443   1.283       .  A
O1165     Ni1168   1.914   1_655  S
O1165      C1170   1.279       .  A
O1166     Ni1440   1.916       .  S
O1166      C1169   1.280       .  A
Ni1167     O1432   1.920   1_655  S
Ni1167    Ni1440   2.389   1_655  S
Ni1168     O1438   1.916   1_554  S
Ni1168    Ni1439   2.389   1_455  S
C1169      C1315   1.469       .  S
C1170      C1302   1.469       .  S
C1171      O1436   1.283       .  A
C1171      C1202   1.479       .  S
C1172      O1434   1.279       .  A
C1172      C1212   1.488       .  S
O1173     Ni1181   1.917       .  S
O1173      C1183   1.280       .  A
O1174     Ni1453   1.919       .  S
O1174      C1184   1.283       .  A
O1175     Ni1181   1.913       .  S
O1175      C1185   1.279       .  A
O1176     Ni1453   1.914       .  S
O1176      C1458   1.282   1_554  A
O1177     Ni1454   1.913       .  S
O1177      C1730   1.279       .  A
O1178     Ni1182   1.913       .  S
O1178      C2001   1.282   1_546  A
O1179     Ni1182   1.914   1_554  S
O1179      C1728   1.279       .  A
O1180     Ni1454   1.916       .  S
O1180      C1727   1.282   1_545  A
Ni1181     O1446   1.919       .  S
Ni1181     O1448   1.914       .  S
Ni1181    Ni1998   2.381       .  S
Ni1182     O1449   1.913       .  S
Ni1182     O1452   1.916       .  S
Ni1182    Ni1997   2.381   1_546  S
C1183      O1724   1.282       .  A
C1183      C1275   1.484       .  S
C1184      O1723   1.279       .  A
C1184      C1265   1.490       .  S
C1185      O1994   1.282       .  A
C1185      C1235   1.486       .  S
C1186      O1448   1.282       .  A
C1186      O1721   1.279       .  A
C1186      C1225   1.486       .  S
O1187     Ni1195   1.915       .  S
O1187      C1197   1.280       .  A
O1188     Ni1467   1.916   1_556  S
O1188      C1470   1.280       .  A
O1189     Ni1467   1.922       .  S
O1189      C1199   1.283       .  A
O1190     Ni1195   1.925       .  S
O1190      C1200   1.284       .  A
O1191     Ni1196   1.907       .  S
O1191      C1200   1.277       .  A
O1192     Ni1468   1.909   1_554  S
O1192      C1199   1.278       .  A
O1193     Ni1196   1.919       .  S
O1193      C1198   1.283       .  A
O1194     Ni1468   1.922   1_554  S
O1194      C1469   1.282       .  A
Ni1195     O1460   1.916       .  S
Ni1195     O1461   1.922       .  S
Ni1195    Ni1196   2.382       .  S
Ni1196     O1464   1.909       .  S
Ni1196     O1466   1.922       .  S
C1197      O1466   1.282       .  A
C1197      C1205   1.478       .  S
C1198      O1460   1.280       .  A
C1198      C1215   1.488       .  S
C1199      C1245   1.489       .  S
C1200      C1255   1.489       .  S
C1201      C1474   1.404   1_554  A
C1201      C1206   1.401       .  A
C1201      H1208   1.083       .  S
C1202      C1473   1.404       .  A
C1202      C1203   1.412       .  A
C1203      C1204   1.399       .  A
C1203     Br1210   1.920       .  S
C1204      C1205   1.403       .  A
C1204      H1209   1.083       .  S
C1205      C1478   1.412       .  A
C1206      C1477   1.412       .  A
C1206     Br1207   1.921       .  S
C1211      C1212   1.406       .  A
C1211      C1216   1.400       .  A
C1211      H1218   1.083       .  S
C1212      C1485   1.416       .  A
C1213      C1484   1.416   1_554  A
C1213      C1214   1.399       .  A
C1213     Br1220   1.922       .  S
C1214      C1487   1.405   1_554  A
C1214      H1219   1.083       .  S
C1215      C1486   1.405       .  A
C1215      C1216   1.415       .  A
C1216     Br1217   1.922       .  S
C1221      C1766   1.405   1_545  A
C1221      C1226   1.397       .  A
C1221      H1228   1.083       .  S
C1222      C1765   1.405       .  A
C1222      C1495   1.415       .  A
C1223      C1494   1.415       .  A
C1223      C1224   1.397       .  A
C1223     Br1230   1.923       .  S
C1224      C1497   1.406   1_554  A
C1224      H1229   1.083       .  S
C1225      C1496   1.406       .  A
C1225      C1770   1.415       .  A
C1226      C1769   1.415       .  A
C1226     Br1227   1.923       .  S
C1231      C1504   1.406   1_554  A
C1231      C1236   1.397       .  A
C1231      H1238   1.083       .  S
C1232      C1503   1.406       .  A
C1232      C1777   1.415       .  A
C1233      C1776   1.415       .  A
C1233      C1234   1.397       .  A
C1233     Br1240   1.923       .  S
C1234      C1779   1.406   1_545  A
C1234      H1239   1.083       .  S
C1235      C1778   1.406       .  A
C1235      C1508   1.415       .  A
C1236      C1507   1.415       .  A
C1236     Br1237   1.923       .  S
C1241      C1242   1.396       .  A
C1241      C1246   1.398       .  A
C1241      H1248   1.084       .  S
C1242      C1243   1.403       .  A
C1243      C1244   1.399       .  A
C1243     Br1250   1.919       .  S
C1244      C1245   1.409       .  A
C1244      H1249   1.083       .  S
C1245      C1246   1.421       .  A
C1246     Br1247   1.923       .  S
C1251      C1252   1.396       .  A
C1251      C1256   1.398       .  A
C1251      H1258   1.084       .  S
C1252      C1253   1.403       .  A
C1253      C1254   1.399       .  A
C1253     Br1260   1.919       .  S
C1254      C1255   1.409       .  A
C1254      H1259   1.083       .  S
C1255      C1256   1.422       .  A
C1256     Br1257   1.924       .  S
C1261      C1806   1.397       .  A
C1261      C1266   1.399       .  A
C1261      H1268   1.084       .  S
C1262      C1805   1.397       .  A
C1262      C1263   1.403       .  A
C1263      C1264   1.398       .  A
C1263     Br1270   1.919       .  S
C1264      C1265   1.410       .  A
C1264      H1269   1.083       .  S
C1265      C1810   1.421       .  A
C1266      C1809   1.421       .  A
C1266     Br1267   1.923       .  S
C1271      C1272   1.400       .  A
C1271      C1276   1.399       .  A
C1271      H1278   1.084       .  S
C1272      C1817   1.404       .  A
C1273      C1816   1.404       .  A
C1273      C1274   1.398       .  A
C1273     Br1280   1.920       .  S
C1274      C1819   1.408   1_545  A
C1274      H1279   1.083       .  S
C1275      C1818   1.408       .  A
C1275      C1276   1.417       .  A
C1276     Br1277   1.922       .  S
C1281      C1282   1.405       .  A
C1281      C1286   1.398       .  A
C1281      H1288   1.083       .  S
C1282      C1283   1.413       .  A
C1283      C1284   1.398       .  A
C1283     Br1290   1.922       .  S
C1284      C1285   1.405       .  A
C1284      H1289   1.083       .  S
C1285      C1286   1.414       .  A
C1286     Br1287   1.922       .  S
C1291      C1292   1.404       .  A
C1291      C1296   1.400       .  A
C1291      H1298   1.083       .  S
C1292      C1293   1.414       .  A
C1293      C1294   1.400       .  A
C1293     Br1300   1.922       .  S
C1294      C1295   1.405       .  A
C1294      H1299   1.083       .  S
C1295      C1296   1.414       .  A
C1296     Br1297   1.922       .  S
C1301      C1302   1.399       .  A
C1301      C1306   1.400       .  A
C1301      H1308   1.084       .  S
C1303      C1304   1.398       .  A
C1303     Br1310   1.916       .  S
C1304      H1309   1.083       .  S
C1305      C1306   1.417       .  A
C1306     Br1307   1.920       .  S
C1311      C1316   1.400       .  A
C1311      H1318   1.083       .  S
C1312      C1313   1.416       .  A
C1313      C1314   1.398       .  A
C1313     Br1320   1.922       .  S
C1314      C1315   1.399   1_655  A
C1314      H1319   1.082       .  S
C1316     Br1317   1.920       .  S
C1321      C1866   1.400   1_655  A
C1321      C1326   1.400       .  A
C1321      H1328   1.084       .  S
C1322      C1865   1.400   1_455  A
C1323      C1324   1.399       .  A
C1323     Br1330   1.920       .  S
C1324      H1329   1.083       .  S
C1325      C1326   1.417       .  A
C1326     Br1327   1.922       .  S
C1331      C1332   1.399       .  A
C1331      C1336   1.400       .  A
C1331      H1338   1.084       .  S
C1333      C1334   1.398       .  A
C1333     Br1340   1.920       .  S
C1334      C1879   1.408   1_655  A
C1334      H1339   1.083       .  S
C1335      C1878   1.408   1_445  A
C1336     Br1337   1.922       .  S
C1341      C1346   1.398       .  A
C1341      H1348   1.083       .  S
C1342      C1343   1.414       .  A
C1343      C1344   1.397       .  A
C1343     Br1350   1.921       .  S
C1344      C1345   1.404   1_655  A
C1344      H1349   1.083       .  S
C1346     Br1347   1.922       .  S
C1351      C1356   1.398       .  A
C1351      H1358   1.083       .  S
C1352      C1353   1.416       .  A
C1353      C1354   1.398       .  A
C1353     Br1360   1.923       .  S
C1354      C1355   1.406   1_655  A
C1354      H1359   1.083       .  S
C1356     Br1357   1.924       .  S
O1361     Ni1913   1.914   1_565  S
O1362     Ni1369   1.915       .  S
O1363     Ni1369   1.914       .  S
O1363      C1373   1.282   1_655  A
O1364     Ni1913   1.918       .  S
O1364      C1374   1.283   1_655  A
O1365     Ni1914   1.912       .  S
O1366     Ni1370   1.914       .  S
O1367     Ni1914   1.919   1_565  S
O1367      C1916   1.282       .  A
O1368     Ni1370   1.919       .  S
O1368      C1915   1.281       .  A
Ni1369     O1905   1.914       .  S
Ni1369     O1908   1.918       .  S
Ni1370     O1909   1.912       .  S
Ni1370     O1911   1.919       .  S
C1371      O1912   1.281       .  A
C1371      C1604   1.467       .  S
C1372      O1911   1.282       .  A
C1373      C1617   1.481       .  S
C1374      C1627   1.488       .  S
O1375     Ni1383   1.919       .  S
O1376     Ni1383   1.918       .  S
O1377     Ni1383   1.916       .  S
O1378     Ni1383   1.916       .  S
O1379     Ni1384   1.913       .  S
O1379      C1388   1.279       .  A
O1380     Ni1384   1.913       .  S
O1380      C1387   1.280       .  A
O1381     Ni1384   1.915       .  S
O1381      C1386   1.280       .  A
O1382     Ni1384   1.914       .  S
O1382      C1385   1.280       .  A
C1385      C1584   1.483       .  S
C1386      C1577   1.485       .  S
C1387      C1614   1.482       .  S
C1388      C1624   1.488       .  S
O1389     Ni1941   1.917       .  S
O1389      C1943   1.280       .  A
O1390     Ni1397   1.917       .  S
O1390      C1400   1.280       .  A
O1391     Ni1397   1.917       .  S
O1391      C1401   1.281       .  A
O1392     Ni1941   1.913       .  S
O1392      C1402   1.280       .  A
O1393     Ni1942   1.923       .  S
O1393      C1402   1.283       .  A
O1394     Ni1398   1.916       .  S
O1394      C1401   1.282       .  A
O1395     Ni1942   1.915   1_565  S
O1395      C1944   1.279   1_565  A
O1396     Ni1398   1.914       .  S
O1396      C1399   1.280       .  A
Ni1397     O1933   1.917       .  S
Ni1397     O1936   1.913       .  S
Ni1397    Ni1398   2.389       .  S
Ni1398     O1937   1.923       .  S
Ni1398     O1939   1.915       .  S
C1399      O1933   1.280       .  A
C1399      C1544   1.467       .  S
C1400      O1939   1.279       .  A
C1400      C1534   1.465       .  S
C1401      C1557   1.483       .  S
C1402      C1564   1.484       .  S
O1403     Ni1411   1.915       .  S
O1403      C1413   1.280       .  A
O1404     Ni1411   1.915       .  S
O1404      C1414   1.280       .  A
O1405     Ni1411   1.916       .  S
O1405      C1415   1.280       .  A
O1406     Ni1411   1.914       .  S
O1406      C1416   1.280       .  A
O1407     Ni1412   1.923       .  S
O1407      C1416   1.283       .  A
O1408     Ni1412   1.916       .  S
O1408      C1415   1.282       .  A
O1409     Ni1412   1.915       .  S
O1409      C1414   1.280       .  A
O1410     Ni1412   1.915       .  S
O1410      C1413   1.280       .  A
Ni1411    Ni1412   2.389       .  S
C1413      C1524   1.464       .  S
C1414      C1514   1.465       .  S
C1415      C1554   1.483       .  S
C1416      C1567   1.485       .  S
O1418      C1972   1.281       .  A
O1419     Ni1425   1.912   1_655  S
O1419      C1429   1.279   1_556  A
O1421      C1974   1.279       .  A
O1422     Ni1426   1.915       .  S
O1422      C1701   1.282   1_545  A
O1424      C1427   1.280   1_655  A
Ni1425    Ni1698   2.384   1_456  S
Ni1426    Ni1697   2.384   1_645  S
C1427      C1607   1.486       .  S
C1428      O1962   1.281       .  A
C1428      C1594   1.468       .  S
C1429      O1694   1.282       .  A
C1429      C1494   1.484       .  S
C1430      O1965   1.279       .  A
C1430      C1504   1.485   1_554  S
O1431     Ni1439   1.917   1_556  S
O1431      C1441   1.281   1_655  A
O1432      C1442   1.281   1_455  A
O1433     Ni1439   1.915       .  S
O1433      C1443   1.280   1_554  A
O1435      C1444   1.284       .  A
O1436     Ni1440   1.924   1_655  S
O1437     Ni1440   1.914   1_655  S
O1437      C1442   1.279       .  A
O1438      C1441   1.280       .  A
C1441      C1587   1.469       .  S
C1442      C1574   1.469       .  S
C1443      C1474   1.479       .  S
C1444      C1484   1.488   1_554  S
O1445     Ni1453   1.917   1_556  S
O1445      C1455   1.280       .  A
O1446      C1456   1.283       .  A
O1447     Ni1453   1.913       .  S
O1447      C1457   1.279       .  A
O1449      C2002   1.279       .  A
O1450     Ni1454   1.913       .  S
O1450      C1729   1.282   1_545  A
O1451     Ni1454   1.914       .  S
O1451      C2000   1.279       .  A
O1452      C1999   1.282   1_545  A
Ni1453    Ni1726   2.381   1_554  S
Ni1454    Ni1725   2.381   1_545  S
C1455      O1996   1.282       .  A
C1455      C1547   1.484       .  S
C1456      O1995   1.279       .  A
C1456      C1537   1.490       .  S
C1457      O1722   1.282   1_554  A
C1457      C1507   1.486       .  S
C1458      O1993   1.279       .  A
C1458      C1497   1.486       .  S
O1459     Ni1467   1.915       .  S
O1459      C1469   1.280       .  A
O1461      C1471   1.283       .  A
O1462     Ni1467   1.925   1_556  S
O1462      C1472   1.284       .  A
O1463     Ni1468   1.907       .  S
O1463      C1472   1.277       .  A
O1464      C1471   1.278       .  A
O1465     Ni1468   1.919       .  S
O1465      C1470   1.283       .  A
Ni1467    Ni1468   2.382   1_554  S
C1469      C1477   1.478       .  S
C1470      C1487   1.488       .  S
C1471      C1517   1.489       .  S
C1472      C1527   1.489       .  S
C1473      C1478   1.401       .  A
C1473      H1480   1.083       .  S
C1474      C1475   1.412       .  A
C1475      C1476   1.399       .  A
C1475     Br1482   1.920       .  S
C1476      C1477   1.403   1_556  A
C1476      H1481   1.083       .  S
C1478     Br1479   1.921       .  S
C1483      C1484   1.406       .  A
C1483      C1488   1.400       .  A
C1483      H1490   1.083       .  S
C1485      C1486   1.399       .  A
C1485     Br1492   1.922       .  S
C1486      H1491   1.083       .  S
C1487      C1488   1.415       .  A
C1488     Br1489   1.922       .  S
C1493      C2038   1.405   1_546  A
C1493      C1498   1.397       .  A
C1493      H1500   1.083       .  S
C1494      C2037   1.405   1_554  A
C1495      C1496   1.397       .  A
C1495     Br1502   1.923       .  S
C1496      H1501   1.083       .  S
C1497      C2042   1.415       .  A
C1498      C2041   1.415       .  A
C1498     Br1499   1.923       .  S
C1503      C1508   1.397       .  A
C1503      H1510   1.083       .  S
C1504      C2049   1.415       .  A
C1505      C2048   1.415       .  A
C1505      C1506   1.397       .  A
C1505     Br1512   1.923       .  S
C1506      C2051   1.406   1_546  A
C1506      H1511   1.083       .  S
C1507      C2050   1.406   1_554  A
C1508     Br1509   1.923       .  S
C1513      C1514   1.396       .  A
C1513      C1518   1.398       .  A
C1513      H1520   1.084       .  S
C1514      C1515   1.403       .  A
C1515      C1516   1.399       .  A
C1515     Br1522   1.919       .  S
C1516      C1517   1.409       .  A
C1516      H1521   1.083       .  S
C1517      C1518   1.421       .  A
C1518     Br1519   1.923       .  S
C1523      C1524   1.396       .  A
C1523      C1528   1.398       .  A
C1523      H1530   1.084       .  S
C1524      C1525   1.403       .  A
C1525      C1526   1.399       .  A
C1525     Br1532   1.919       .  S
C1526      C1527   1.409       .  A
C1526      H1531   1.083       .  S
C1527      C1528   1.422       .  A
C1528     Br1529   1.924       .  S
C1533      C2078   1.397       .  A
C1533      C1538   1.399       .  A
C1533      H1540   1.084       .  S
C1534      C2077   1.397       .  A
C1534      C1535   1.403       .  A
C1535      C1536   1.398       .  A
C1535     Br1542   1.919       .  S
C1536      C1537   1.410       .  A
C1536      H1541   1.083       .  S
C1537      C2082   1.421       .  A
C1538      C2081   1.421       .  A
C1538     Br1539   1.923       .  S
C1543      C1544   1.400       .  A
C1543      C1548   1.399       .  A
C1543      H1550   1.084       .  S
C1544      C2089   1.404       .  A
C1545      C2088   1.404       .  A
C1545      C1546   1.398       .  A
C1545     Br1552   1.920       .  S
C1546      C2091   1.408   1_545  A
C1546      H1551   1.083       .  S
C1547      C2090   1.408       .  A
C1547      C1548   1.417       .  A
C1548     Br1549   1.922       .  S
C1553      C1554   1.405       .  A
C1553      C1558   1.398       .  A
C1553      H1560   1.083       .  S
C1554      C1555   1.413       .  A
C1555      C1556   1.398       .  A
C1555     Br1562   1.922       .  S
C1556      C1557   1.405       .  A
C1556      H1561   1.083       .  S
C1557      C1558   1.414       .  A
C1558     Br1559   1.922       .  S
C1563      C1564   1.404       .  A
C1563      C1568   1.400       .  A
C1563      H1570   1.083       .  S
C1564      C1565   1.414       .  A
C1565      C1566   1.400       .  A
C1565     Br1572   1.922       .  S
C1566      C1567   1.405       .  A
C1566      H1571   1.083       .  S
C1567      C1568   1.414       .  A
C1568     Br1569   1.922       .  S
C1573      C1574   1.399       .  A
C1573      C1578   1.400       .  A
C1573      H1580   1.084       .  S
C1575      C1576   1.398       .  A
C1575     Br1582   1.916       .  S
C1576      H1581   1.083       .  S
C1577      C1578   1.417       .  A
C1578     Br1579   1.920       .  S
C1583      C1588   1.400       .  A
C1583      H1590   1.083       .  S
C1584      C1585   1.416       .  A
C1585      C1586   1.398       .  A
C1585     Br1592   1.922       .  S
C1586      C1587   1.399   1_655  A
C1586      H1591   1.082       .  S
C1588     Br1589   1.920       .  S
C1593      C2138   1.400   1_655  A
C1593      C1598   1.400       .  A
C1593      H1600   1.084       .  S
C1594      C2137   1.400   1_455  A
C1595      C1596   1.399       .  A
C1595     Br1602   1.920       .  S
C1596      H1601   1.083       .  S
C1597      C1598   1.417       .  A
C1598     Br1599   1.922       .  S
C1603      C1604   1.399       .  A
C1603      C1608   1.400       .  A
C1603      H1610   1.084       .  S
C1605      C1606   1.398       .  A
C1605     Br1612   1.920       .  S
C1606      C2151   1.408   1_655  A
C1606      H1611   1.083       .  S
C1607      C2150   1.408   1_445  A
C1608     Br1609   1.922       .  S
C1613      C1618   1.398       .  A
C1613      H1620   1.083       .  S
C1614      C1615   1.414       .  A
C1615      C1616   1.397       .  A
C1615     Br1622   1.921       .  S
C1616      C1617   1.404   1_655  A
C1616      H1621   1.083       .  S
C1618     Br1619   1.922       .  S
C1623      C1628   1.398       .  A
C1623      H1630   1.083       .  S
C1624      C1625   1.416       .  A
C1625      C1626   1.398       .  A
C1625     Br1632   1.923       .  S
C1626      C1627   1.406   1_655  A
C1626      H1631   1.083       .  S
C1628     Br1629   1.924       .  S
O1634     Ni1641   1.915       .  S
O1635     Ni1641   1.914   1_565  S
O1635      C1645   1.282   1_655  A
O1636      C1646   1.283   1_655  A
O1638     Ni1642   1.914   1_565  S
O1640     Ni1642   1.919       .  S
C1643      C1876   1.467       .  S
C1645      C1889   1.481       .  S
C1646      C1899   1.488       .  S
O1647     Ni1655   1.919       .  S
O1648     Ni1655   1.918       .  S
O1649     Ni1655   1.916       .  S
O1650     Ni1655   1.916       .  S
O1651     Ni1656   1.913       .  S
O1651      C1660   1.279       .  A
O1652     Ni1656   1.913       .  S
O1652      C1659   1.280       .  A
O1653     Ni1656   1.915       .  S
O1653      C1658   1.280       .  A
O1654     Ni1656   1.914       .  S
O1654      C1657   1.280       .  A
C1657      C1856   1.483       .  S
C1658      C1849   1.485       .  S
C1659      C1886   1.482       .  S
C1660      C1896   1.488       .  S
O1662     Ni1669   1.917       .  S
O1662      C1672   1.280       .  A
O1663     Ni1669   1.917   1_565  S
O1663      C1673   1.281       .  A
O1664      C1674   1.280       .  A
O1665      C1674   1.283       .  A
O1666     Ni1670   1.916   1_565  S
O1666      C1673   1.282       .  A
O1668     Ni1670   1.914       .  S
O1668      C1671   1.280       .  A
Ni1669    Ni1670   2.389       .  S
C1671      C1816   1.467       .  S
C1672      C1806   1.465       .  S
C1673      C1829   1.483       .  S
C1674      C1836   1.484       .  S
O1675     Ni1683   1.915       .  S
O1675      C1685   1.280       .  A
O1676     Ni1683   1.915       .  S
O1676      C1686   1.280       .  A
O1677     Ni1683   1.916       .  S
O1677      C1687   1.280       .  A
O1678     Ni1683   1.914       .  S
O1678      C1688   1.280       .  A
O1679     Ni1684   1.923       .  S
O1679      C1688   1.283       .  A
O1680     Ni1684   1.916       .  S
O1680      C1687   1.282       .  A
O1681     Ni1684   1.915       .  S
O1681      C1686   1.280       .  A
O1682     Ni1684   1.915       .  S
O1682      C1685   1.280       .  A
Ni1683    Ni1684   2.389       .  S
C1685      C1796   1.464       .  S
C1686      C1786   1.465       .  S
C1687      C1826   1.483       .  S
C1688      C1839   1.485       .  S
O1690     Ni1969   1.919   1_654  S
O1691     Ni1697   1.912   1_655  S
O1691      C1701   1.279       .  A
O1692      C1974   1.282   1_565  A
O1694     Ni1698   1.915       .  S
O1696     Ni1970   1.916       .  S
O1696      C1699   1.280   1_655  A
Ni1697     O1962   1.919       .  S
Ni1698     O1968   1.916   1_554  S
C1699      C1879   1.486       .  S
C1700      C1866   1.468       .  S
C1701      C1766   1.484       .  S
C1702      O1964   1.282   1_545  A
C1702      C1776   1.485       .  S
O1703     Ni1711   1.917       .  S
O1703      C1713   1.281   1_655  A
O1704     Ni1983   1.920   1_455  S
O1704      C1714   1.281   1_455  A
O1705     Ni1711   1.915       .  S
O1705      C1715   1.280       .  A
O1706      C1988   1.279   1_556  A
O1707      C1716   1.284       .  A
O1708     Ni1712   1.924   1_656  S
O1708      C1987   1.283       .  A
O1709     Ni1712   1.914   1_655  S
O1709      C1714   1.279       .  A
O1710     Ni1984   1.916       .  S
O1710      C1713   1.280       .  A
Ni1711     O1976   1.920   1_655  S
Ni1711    Ni1984   2.389   1_655  S
Ni1712     O1982   1.916   1_554  S
Ni1712    Ni1983   2.389   1_455  S
C1713      C1859   1.469       .  S
C1714      C1846   1.469       .  S
C1715      O1980   1.283       .  A
C1715      C1746   1.479       .  S
C1716      O1978   1.279       .  A
C1716      C1756   1.488       .  S
O1717     Ni1725   1.917       .  S
O1717      C1727   1.280       .  A
O1718     Ni1997   1.919       .  S
O1718      C1728   1.283   1_565  A
O1719     Ni1725   1.913       .  S
O1719      C1729   1.279       .  A
O1720     Ni1997   1.914       .  S
O1720      C2002   1.282   1_564  A
O1721     Ni1998   1.913       .  S
O1722     Ni1726   1.913       .  S
O1723     Ni1726   1.914   1_554  S
O1724     Ni1998   1.916       .  S
Ni1725     O1990   1.919       .  S
Ni1725     O1992   1.914       .  S
Ni1726     O1993   1.913       .  S
Ni1726     O1996   1.916       .  S
C1727      C1819   1.484       .  S
C1728      C1809   1.490       .  S
C1729      C1779   1.486       .  S
C1730      O1992   1.282   1_545  A
C1730      C1769   1.486       .  S
O1731     Ni1739   1.915       .  S
O1731      C1741   1.280       .  A
O1732     Ni2011   1.916   1_556  S
O1732      C2014   1.280       .  A
O1733     Ni2011   1.922       .  S
O1733      C1743   1.283       .  A
O1734     Ni1739   1.925       .  S
O1734      C1744   1.284       .  A
O1735     Ni1740   1.907       .  S
O1735      C1744   1.277       .  A
O1736     Ni2012   1.909   1_554  S
O1736      C1743   1.278       .  A
O1737     Ni1740   1.919       .  S
O1737      C1742   1.283       .  A
O1738     Ni2012   1.922   1_554  S
O1738      C2013   1.282       .  A
Ni1739     O2004   1.916       .  S
Ni1739     O2005   1.922       .  S
Ni1739    Ni1740   2.382       .  S
Ni1740     O2008   1.909       .  S
Ni1740     O2010   1.922       .  S
C1741      O2010   1.282       .  A
C1741      C1749   1.478       .  S
C1742      O2004   1.280       .  A
C1742      C1759   1.488       .  S
C1743      C1789   1.489       .  S
C1744      C1799   1.489       .  S
C1745      C2018   1.404   1_554  A
C1745      C1750   1.401       .  A
C1745      H1752   1.083       .  S
C1746      C2017   1.404       .  A
C1746      C1747   1.412       .  A
C1747      C1748   1.399       .  A
C1747     Br1754   1.920       .  S
C1748      C1749   1.403       .  A
C1748      H1753   1.083       .  S
C1749      C2022   1.412       .  A
C1750      C2021   1.412       .  A
C1750     Br1751   1.921       .  S
C1755      C1756   1.406       .  A
C1755      C1760   1.400       .  A
C1755      H1762   1.083       .  S
C1756      C2029   1.416       .  A
C1757      C2028   1.416   1_554  A
C1757      C1758   1.399       .  A
C1757     Br1764   1.922       .  S
C1758      C2031   1.405   1_554  A
C1758      H1763   1.083       .  S
C1759      C2030   1.405       .  A
C1759      C1760   1.415       .  A
C1760     Br1761   1.922       .  S
C1765      C1770   1.397       .  A
C1765      H1772   1.083       .  S
C1766      C2039   1.415       .  A
C1767      C2038   1.415       .  A
C1767      C1768   1.397       .  A
C1767     Br1774   1.923       .  S
C1768      C2041   1.406   1_564  A
C1768      H1773   1.083       .  S
C1769      C2040   1.406   1_545  A
C1770     Br1771   1.923       .  S
C1775      C2048   1.406   1_564  A
C1775      C1780   1.397       .  A
C1775      H1782   1.083       .  S
C1776      C2047   1.406   1_545  A
C1777      C1778   1.397       .  A
C1777     Br1784   1.923       .  S
C1778      H1783   1.083       .  S
C1779      C2052   1.415       .  A
C1780      C2051   1.415       .  A
C1780     Br1781   1.923       .  S
C1785      C1786   1.396       .  A
C1785      C1790   1.398       .  A
C1785      H1792   1.084       .  S
C1786      C1787   1.403       .  A
C1787      C1788   1.399       .  A
C1787     Br1794   1.919       .  S
C1788      C1789   1.409       .  A
C1788      H1793   1.083       .  S
C1789      C1790   1.421       .  A
C1790     Br1791   1.923       .  S
C1795      C1796   1.396       .  A
C1795      C1800   1.398       .  A
C1795      H1802   1.084       .  S
C1796      C1797   1.403       .  A
C1797      C1798   1.399       .  A
C1797     Br1804   1.919       .  S
C1798      C1799   1.409       .  A
C1798      H1803   1.083       .  S
C1799      C1800   1.422       .  A
C1800     Br1801   1.924       .  S
C1805      C1810   1.399       .  A
C1805      H1812   1.084       .  S
C1806      C1807   1.403   1_545  A
C1807      C1808   1.398       .  A
C1807     Br1814   1.919       .  S
C1808      C1809   1.410   1_565  A
C1808      H1813   1.083       .  S
C1810     Br1811   1.923       .  S
C1815      C1816   1.400   1_565  A
C1815      C1820   1.399       .  A
C1815      H1822   1.084       .  S
C1817      C1818   1.398       .  A
C1817     Br1824   1.920       .  S
C1818      H1823   1.083       .  S
C1819      C1820   1.417       .  A
C1820     Br1821   1.922       .  S
C1825      C1826   1.405       .  A
C1825      C1830   1.398       .  A
C1825      H1832   1.083       .  S
C1826      C1827   1.413       .  A
C1827      C1828   1.398       .  A
C1827     Br1834   1.922       .  S
C1828      C1829   1.405       .  A
C1828      H1833   1.083       .  S
C1829      C1830   1.414       .  A
C1830     Br1831   1.922       .  S
C1835      C1836   1.404       .  A
C1835      C1840   1.400       .  A
C1835      H1842   1.083       .  S
C1836      C1837   1.414       .  A
C1837      C1838   1.400       .  A
C1837     Br1844   1.922       .  S
C1838      C1839   1.405       .  A
C1838      H1843   1.083       .  S
C1839      C1840   1.414       .  A
C1840     Br1841   1.922       .  S
C1845      C1846   1.399       .  A
C1845      C1850   1.400       .  A
C1845      H1852   1.084       .  S
C1847      C1848   1.398       .  A
C1847     Br1854   1.916       .  S
C1848      H1853   1.083       .  S
C1849      C1850   1.417       .  A
C1850     Br1851   1.920       .  S
C1855      C1860   1.400       .  A
C1855      H1862   1.083       .  S
C1856      C1857   1.416       .  A
C1857      C1858   1.398       .  A
C1857     Br1864   1.922       .  S
C1858      C1859   1.399   1_655  A
C1858      H1863   1.082       .  S
C1860     Br1861   1.920       .  S
C1865      C1870   1.400       .  A
C1865      H1872   1.084       .  S
C1867      C1868   1.399       .  A
C1867     Br1874   1.920       .  S
C1868      H1873   1.083       .  S
C1869      C1870   1.417       .  A
C1870     Br1871   1.922       .  S
C1875      C1876   1.399       .  A
C1875      C1880   1.400       .  A
C1875      H1882   1.084       .  S
C1877      C1878   1.398       .  A
C1877     Br1884   1.920       .  S
C1878      H1883   1.083       .  S
C1880     Br1881   1.922       .  S
C1885      C1890   1.398       .  A
C1885      H1892   1.083       .  S
C1886      C1887   1.414       .  A
C1887      C1888   1.397       .  A
C1887     Br1894   1.921       .  S
C1888      C1889   1.404   1_655  A
C1888      H1893   1.083       .  S
C1890     Br1891   1.922       .  S
C1895      C1900   1.398       .  A
C1895      H1902   1.083       .  S
C1896      C1897   1.416       .  A
C1897      C1898   1.398       .  A
C1897     Br1904   1.923       .  S
C1898      C1899   1.406   1_655  A
C1898      H1903   1.083       .  S
C1900     Br1901   1.924       .  S
O1906     Ni1913   1.915       .  S
O1907     Ni1913   1.914   1_565  S
O1907      C1917   1.282   1_655  A
O1908      C1918   1.283   1_655  A
O1910     Ni1914   1.914   1_565  S
O1912     Ni1914   1.919       .  S
C1915      C2148   1.467       .  S
C1917      C2161   1.481       .  S
C1918      C2171   1.488       .  S
O1919     Ni1927   1.919       .  S
O1920     Ni1927   1.918       .  S
O1921     Ni1927   1.916       .  S
O1922     Ni1927   1.916       .  S
O1923     Ni1928   1.913       .  S
O1923      C1932   1.279       .  A
O1924     Ni1928   1.913       .  S
O1924      C1931   1.280       .  A
O1925     Ni1928   1.915       .  S
O1925      C1930   1.280       .  A
O1926     Ni1928   1.914       .  S
O1926      C1929   1.280       .  A
C1929      C2128   1.483       .  S
C1930      C2121   1.485       .  S
C1931      C2158   1.482       .  S
C1932      C2168   1.488       .  S
O1934     Ni1941   1.917       .  S
O1934      C1944   1.280       .  A
O1935     Ni1941   1.917   1_565  S
O1935      C1945   1.281       .  A
O1936      C1946   1.280       .  A
O1937      C1946   1.283       .  A
O1938     Ni1942   1.916   1_565  S
O1938      C1945   1.282       .  A
O1940     Ni1942   1.914       .  S
O1940      C1943   1.280       .  A
Ni1941    Ni1942   2.389       .  S
C1943      C2088   1.467       .  S
C1944      C2078   1.465       .  S
C1945      C2101   1.483       .  S
C1946      C2108   1.484       .  S
O1947     Ni1955   1.915       .  S
O1947      C1957   1.280       .  A
O1948     Ni1955   1.915       .  S
O1948      C1958   1.280       .  A
O1949     Ni1955   1.916       .  S
O1949      C1959   1.280       .  A
O1950     Ni1955   1.914       .  S
O1950      C1960   1.280       .  A
O1951     Ni1956   1.923       .  S
O1951      C1960   1.283       .  A
O1952     Ni1956   1.916       .  S
O1952      C1959   1.282       .  A
O1953     Ni1956   1.915       .  S
O1953      C1958   1.280       .  A
O1954     Ni1956   1.915       .  S
O1954      C1957   1.280       .  A
Ni1955    Ni1956   2.389       .  S
C1957      C2068   1.464       .  S
C1958      C2058   1.465       .  S
C1959      C2098   1.483       .  S
C1960      C2111   1.485       .  S
O1963     Ni1969   1.912   1_655  S
O1963      C1973   1.279   1_556  A
O1966     Ni1970   1.915       .  S
O1968      C1971   1.280   1_655  A
C1971      C2151   1.486       .  S
C1972      C2138   1.468       .  S
C1973      C2038   1.484       .  S
C1974      C2048   1.485   1_554  S
O1975     Ni1983   1.917   1_556  S
O1975      C1985   1.281   1_655  A
O1976      C1986   1.281   1_455  A
O1977     Ni1983   1.915       .  S
O1977      C1987   1.280   1_554  A
O1979      C1988   1.284       .  A
O1980     Ni1984   1.924   1_655  S
O1981     Ni1984   1.914   1_655  S
O1981      C1986   1.279       .  A
O1982      C1985   1.280       .  A
C1985      C2131   1.469       .  S
C1986      C2118   1.469       .  S
C1987      C2018   1.479       .  S
C1988      C2028   1.488   1_554  S
O1989     Ni1997   1.917   1_556  S
O1989      C1999   1.280       .  A
O1990      C2000   1.283   1_565  A
O1991     Ni1997   1.913       .  S
O1991      C2001   1.279       .  A
O1994     Ni1998   1.913       .  S
O1995     Ni1998   1.914       .  S
C1999      C2091   1.484       .  S
C2000      C2081   1.490       .  S
C2001      C2051   1.486       .  S
C2002      C2041   1.486       .  S
O2003     Ni2011   1.915       .  S
O2003      C2013   1.280       .  A
O2005      C2015   1.283       .  A
O2006     Ni2011   1.925   1_556  S
O2006      C2016   1.284       .  A
O2007     Ni2012   1.907       .  S
O2007      C2016   1.277       .  A
O2008      C2015   1.278       .  A
O2009     Ni2012   1.919       .  S
O2009      C2014   1.283       .  A
Ni2011    Ni2012   2.382   1_554  S
C2013      C2021   1.478       .  S
C2014      C2031   1.488       .  S
C2015      C2061   1.489       .  S
C2016      C2071   1.489       .  S
C2017      C2022   1.401       .  A
C2017      H2024   1.083       .  S
C2018      C2019   1.412       .  A
C2019      C2020   1.399       .  A
C2019     Br2026   1.920       .  S
C2020      C2021   1.403   1_556  A
C2020      H2025   1.083       .  S
C2022     Br2023   1.921       .  S
C2027      C2028   1.406       .  A
C2027      C2032   1.400       .  A
C2027      H2034   1.083       .  S
C2029      C2030   1.399       .  A
C2029     Br2036   1.922       .  S
C2030      H2035   1.083       .  S
C2031      C2032   1.415       .  A
C2032     Br2033   1.922       .  S
C2037      C2042   1.397       .  A
C2037      H2044   1.083       .  S
C2039      C2040   1.397       .  A
C2039     Br2046   1.923       .  S
C2040      H2045   1.083       .  S
C2042     Br2043   1.923       .  S
C2047      C2052   1.397       .  A
C2047      H2054   1.083       .  S
C2049      C2050   1.397       .  A
C2049     Br2056   1.923       .  S
C2050      H2055   1.083       .  S
C2052     Br2053   1.923       .  S
C2057      C2058   1.396       .  A
C2057      C2062   1.398       .  A
C2057      H2064   1.084       .  S
C2058      C2059   1.403       .  A
C2059      C2060   1.399       .  A
C2059     Br2066   1.919       .  S
C2060      C2061   1.409       .  A
C2060      H2065   1.083       .  S
C2061      C2062   1.421       .  A
C2062     Br2063   1.923       .  S
C2067      C2068   1.396       .  A
C2067      C2072   1.398       .  A
C2067      H2074   1.084       .  S
C2068      C2069   1.403       .  A
C2069      C2070   1.399       .  A
C2069     Br2076   1.919       .  S
C2070      C2071   1.409       .  A
C2070      H2075   1.083       .  S
C2071      C2072   1.422       .  A
C2072     Br2073   1.924       .  S
C2077      C2082   1.399       .  A
C2077      H2084   1.084       .  S
C2078      C2079   1.403   1_545  A
C2079      C2080   1.398       .  A
C2079     Br2086   1.919       .  S
C2080      C2081   1.410   1_565  A
C2080      H2085   1.083       .  S
C2082     Br2083   1.923       .  S
C2087      C2088   1.400   1_565  A
C2087      C2092   1.399       .  A
C2087      H2094   1.084       .  S
C2089      C2090   1.398       .  A
C2089     Br2096   1.920       .  S
C2090      H2095   1.083       .  S
C2091      C2092   1.417       .  A
C2092     Br2093   1.922       .  S
C2097      C2098   1.405       .  A
C2097      C2102   1.398       .  A
C2097      H2104   1.083       .  S
C2098      C2099   1.413       .  A
C2099      C2100   1.398       .  A
C2099     Br2106   1.922       .  S
C2100      C2101   1.405       .  A
C2100      H2105   1.083       .  S
C2101      C2102   1.414       .  A
C2102     Br2103   1.922       .  S
C2107      C2108   1.404       .  A
C2107      C2112   1.400       .  A
C2107      H2114   1.083       .  S
C2108      C2109   1.414       .  A
C2109      C2110   1.400       .  A
C2109     Br2116   1.922       .  S
C2110      C2111   1.405       .  A
C2110      H2115   1.083       .  S
C2111      C2112   1.414       .  A
C2112     Br2113   1.922       .  S
C2117      C2118   1.399       .  A
C2117      C2122   1.400       .  A
C2117      H2124   1.084       .  S
C2119      C2120   1.398       .  A
C2119     Br2126   1.916       .  S
C2120      H2125   1.083       .  S
C2121      C2122   1.417       .  A
C2122     Br2123   1.920       .  S
C2127      C2132   1.400       .  A
C2127      H2134   1.083       .  S
C2128      C2129   1.416       .  A
C2129      C2130   1.398       .  A
C2129     Br2136   1.922       .  S
C2130      C2131   1.399   1_655  A
C2130      H2135   1.082       .  S
C2132     Br2133   1.920       .  S
C2137      C2142   1.400       .  A
C2137      H2144   1.084       .  S
C2139      C2140   1.399       .  A
C2139     Br2146   1.920       .  S
C2140      H2145   1.083       .  S
C2141      C2142   1.417       .  A
C2142     Br2143   1.922       .  S
C2147      C2148   1.399       .  A
C2147      C2152   1.400       .  A
C2147      H2154   1.084       .  S
C2149      C2150   1.398       .  A
C2149     Br2156   1.920       .  S
C2150      H2155   1.083       .  S
C2152     Br2153   1.922       .  S
C2157      C2162   1.398       .  A
C2157      H2164   1.083       .  S
C2158      C2159   1.414       .  A
C2159      C2160   1.397       .  A
C2159     Br2166   1.921       .  S
C2160      C2161   1.404   1_655  A
C2160      H2165   1.083       .  S
C2162     Br2163   1.922       .  S
C2167      C2172   1.398       .  A
C2167      H2174   1.083       .  S
C2168      C2169   1.416       .  A
C2169      C2170   1.398       .  A
C2169     Br2176   1.923       .  S
C2170      C2171   1.406   1_655  A
C2170      H2175   1.083       .  S
C2172     Br2173   1.924       .  S
