geometry optimzed in LAMMPS
_audit_creation_date              2020-11-30 
_audit_creation_method            'lammps2cif' 
_symmetry_space_group_name_H-M    'P1' 
_symmetry_Int_Tables_number       1 
_symmetry_cell_setting            triclinic 
loop_ 
_symmetry_equiv_pos_as_xyz 
  x,y,z 
_cell_length_a                    34.77665354 
_cell_length_b                    34.72523223010812 
_cell_length_c                    34.72199705990552 
_cell_angle_alpha                 90.22206129309524 
_cell_angle_beta                  89.78835063705138 
_cell_angle_gamma                 120.0809358399732 
loop_ 
_atom_site_label 
_atom_site_type_symbol 
_atom_site_fract_x 
_atom_site_fract_y 
_atom_site_fract_z 
_atom_site_charge 
O1          O  0.59787930  0.24718932  0.48710956    -0.85000
O2          O  0.68475070  0.28237627  0.46581560    -0.82100
C3          C  0.72493660  0.31118577  0.46068416     0.98400
O4          O  0.74399703  0.34431451  0.48316275    -0.82100
O5          O  0.70635246  0.39482725  0.46469149    -0.84700
C6          C  0.67740573  0.40630730  0.46172307     1.03000
O7          O  0.64722790  0.39410773  0.48701870    -0.77500
O8          O  0.59618821  0.30623231  0.46778850    -0.77700
C9          C  0.58471527  0.26583674  0.46347351     1.02900
O10         O  0.62541503  0.26187671  0.56696404    -0.85000
O11         O  0.71155181  0.28979281  0.54489954    -0.82100
C12         C  0.73556226  0.32267400  0.56650201     0.98500
O13         O  0.73480173  0.35842128  0.56333530    -0.82100
O14         O  0.70452419  0.41547363  0.54504011    -0.84700
C15         C  0.67368593  0.40574218  0.56926615     1.02900
O16         O  0.63775268  0.36921516  0.56694953    -0.77500
O17         O  0.57850560  0.28232855  0.54756120    -0.77700
C18         C  0.58898894  0.26107232  0.57067697     1.02900
Cr19       Cr  0.65546142  0.27423657  0.51633214     1.93700
Cr20       Cr  0.71845498  0.37496406  0.51420120     1.93200
Cr21       Cr  0.61821466  0.33733008  0.51733201     1.39100
O22         O  0.66412573  0.32882006  0.51602428    -1.22800
O23         O  0.26398762  0.61045831  0.52079973    -0.85000
O24         O  0.29859108  0.69858954  0.53951393    -0.82100
C25         C  0.32598278  0.73973664  0.54138261     0.98400
O26         O  0.35493743  0.75832789  0.51519873    -0.82100
O27         O  0.41224363  0.72666224  0.52736172    -0.84700
C28         C  0.42621984  0.69946951  0.52830839     1.03000
O29         O  0.41059514  0.66661904  0.50539669    -0.77500
O30         O  0.32604589  0.61051856  0.53219490    -0.77700
C31         C  0.28591361  0.59716109  0.54011774     1.02900
O32         O  0.26545819  0.63264134  0.44082028    -0.85000
O33         O  0.29227023  0.71901937  0.46013049    -0.82100
C34         C  0.32028302  0.74049361  0.43391766     0.98500
O35         O  0.35766297  0.74294367  0.43399086    -0.82100
O36         O  0.42179204  0.72023264  0.44571689    -0.84700
C37         C  0.41100926  0.68814874  0.42262685     1.02900
O38         O  0.37573724  0.65177574  0.42831452    -0.77500
O39         O  0.29322849  0.59013908  0.45507203    -0.77700
C40         C  0.26702073  0.59753565  0.43551537     1.02900
Cr41       Cr  0.28418239  0.66601383  0.48993398     1.93700
Cr42       Cr  0.38331776  0.73293675  0.48080648     1.93200
Cr43       Cr  0.35064396  0.63320073  0.48049478     1.39100
O44         O  0.33934829  0.67731616  0.48404827    -1.22800
C45         C  0.70578976  0.68765210  0.23493585     0.80600
N46         N  0.70950158  0.65300485  0.24878342    -0.77700
C47         C  0.67684539  0.62144039  0.27119263     0.83000
N48         N  0.64082600  0.62504558  0.28003308    -0.77700
C49         C  0.63676411  0.65967567  0.26723458     0.83100
N50         N  0.66953812  0.69087829  0.24476945    -0.79400
C51         C  0.68964590  0.70454211  0.76305075     0.80600
N52         N  0.65964375  0.71210353  0.74458322    -0.77700
C53         C  0.63069985  0.68167190  0.71910252     0.83000
N54         N  0.63327353  0.64476759  0.71116893    -0.77700
C55         C  0.66374624  0.63737945  0.72871298     0.83100
N56         N  0.69173008  0.66734473  0.75485659    -0.79400
C57         C  0.29828580  0.98483114  0.77699437     0.80600
N58         N  0.33277909  0.02502703  0.76584637    -0.77700
C59         C  0.36513057  0.02724812  0.74235775     0.83000
N60         N  0.36257220  0.98904781  0.72996025    -0.77700
C61         C  0.32851473  0.94880312  0.74041625     0.83100
N62         N  0.29591385  0.94672267  0.76359423    -0.79400
C63         C  0.29101878  0.02123634  0.24836358     0.80600
N64         N  0.32793373  0.06098856  0.25643419    -0.77700
C65         C  0.36057967  0.06230874  0.27863519     0.83000
N66         N  0.35574283  0.02416413  0.29341263    -0.77700
C67         C  0.31881880  0.98446590  0.28662447     0.83100
N68         N  0.28668582  0.98315519  0.26359065    -0.79400
C69         C  0.98785341  0.29154150  0.23991214     0.83000
N70         N  0.94810259  0.28416113  0.25381520    -0.77700
C71         C  0.94642559  0.31361078  0.27852527     0.83000
N72         N  0.98467366  0.35000946  0.28976482    -0.77700
C73         C  0.02472326  0.35756207  0.27687095     0.83100
N74         N  0.02606002  0.32813477  0.25172959    -0.79400
C75         C  0.02328828  0.29841466  0.74841209     0.80600
N76         N  0.98627120  0.29889107  0.73638246    -0.77700
C77         C  0.98885681  0.32711124  0.70815216     0.83000
N78         N  0.02862467  0.35405943  0.69124804    -0.77700
C79         C  0.06571519  0.35405955  0.70288846     0.83100
N80         N  0.06311121  0.32631808  0.73149625    -0.79400
O81         O  0.90934351  0.94154818  0.02958618    -0.85000
O82         O  0.95688284  0.03048554  0.04862912    -0.82100
C83         C  0.98929701  0.06936973  0.05225445     0.98400
O84         O  0.02264905  0.08330001  0.03012301    -0.82100
O85         O  0.06183385  0.03456088  0.04978001    -0.84700
C86         C  0.06847040  0.00224393  0.05307484     1.03000
O87         O  0.05046413  0.96993722  0.02965206    -0.77500
O88         O  0.96216620  0.92887400  0.04794859    -0.77700
C89         C  0.92342776  0.92247688  0.05192113     1.02900
O90         O  0.92581042  0.96661990  0.94959626    -0.85000
O91         O  0.96688469  0.05515394  0.96856599    -0.82100
C92         C  0.00008199  0.07380957  0.94603876     0.98500
O93         O  0.03247879  0.06752626  0.95034407    -0.82100
O94         O  0.07990741  0.02651107  0.97034413    -0.84700
C95         C  0.06672863  0.99374120  0.94749223     1.02900
O96         O  0.02726234  0.96203076  0.94941413    -0.77500
O97         O  0.93814722  0.91362721  0.96796278    -0.77700
C98         C  0.91862118  0.92751283  0.94606726     1.02900
Cr99       Cr  0.94359060  0.99843092  0.99912766     1.93700
Cr100      Cr  0.04534736  0.04916286  0.00002453     1.93200
Cr101      Cr  0.99445158  0.94749087  0.99868555     1.39100
O102        O  0.99439142  0.99835309  0.99926437    -1.22800
C103        C  0.97281964  0.19388528  0.80943001    -0.01700
C104        C  0.00875103  0.20076120  0.83287555     0.06900
C105        C  0.04973449  0.24006039  0.82865546    -0.07600
C106        C  0.05540553  0.27252515  0.80180314     0.04400
C107        C  0.01935697  0.26589254  0.77826107    -0.14900
C108        C  0.97825198  0.22639806  0.78275252    -0.08200
C109        C  0.00494241  0.16717206  0.86141059     0.05300
C110        C  0.03198073  0.14814431  0.85695082    -0.09300
C111        C  0.03089680  0.11755786  0.88375114     0.00300
C112        C  0.00173221  0.10497316  0.91583750     0.00200
C113        C  0.97448185  0.12400655  0.92001060    -0.12900
C114        C  0.97633656  0.15526039  0.89354811     0.00600
C115        C  0.06008274  0.09977653  0.87725171     0.39900
C116        C  0.95018222  0.17623707  0.90098206     0.36500
C117        C  0.93048800  0.15313461  0.81126252     0.36300
C118        C  0.09837033  0.31249209  0.80000305     0.37000
N119        N  0.08369911  0.08580220  0.87208306    -0.43800
N120        N  0.92933004  0.19316574  0.90692086    -0.44200
N121        N  0.13302414  0.34428699  0.79883784    -0.41600
N122        N  0.89650538  0.12054696  0.81274950    -0.43000
H123        H  0.95033817  0.22026445  0.76471513     0.13200
H124        H  0.07744718  0.24547982  0.84667434     0.09700
H125        H  0.05427603  0.15748007  0.83241525     0.10700
H126        H  0.95255805  0.11554107  0.94471951     0.16500
C127        C  0.95835322  0.18103489  0.19438425    -0.01700
C128        C  0.98832141  0.19394198  0.16313561     0.06900
C129        C  0.01840478  0.23939231  0.15723722    -0.07600
C130        C  0.01951078  0.27175277  0.18213979     0.04400
C131        C  0.98916948  0.25885624  0.21317955    -0.14900
C132        C  0.95870340  0.21341868  0.21873266    -0.08200
C133        C  0.98852050  0.16079166  0.13593356     0.05300
C134        C  0.94955661  0.13210293  0.11567247    -0.09300
C135        C  0.94879420  0.10144956  0.08891466     0.00300
C136        C  0.98787023  0.09965519  0.08155482     0.00200
C137        C  0.02683362  0.12837691  0.10175124    -0.12900
C138        C  0.02733565  0.15843093  0.12902968     0.00600
C139        C  0.90809823  0.07382528  0.06809355     0.39900
C140        C  0.06781140  0.18585741  0.15016173     0.36500
C141        C  0.92789674  0.13476561  0.20286923     0.36300
C142        C  0.05121475  0.31787722  0.17434693     0.37000
N143        N  0.87553649  0.05169606  0.05135813    -0.43800
N144        N  0.10016880  0.20793209  0.16716588    -0.44200
N145        N  0.07680064  0.35479663  0.16811036    -0.41600
N146        N  0.90350882  0.09771431  0.20977802    -0.43000
H147        H  0.93559789  0.20303467  0.24268250     0.13200
H148        H  0.04105328  0.24963960  0.13292688     0.09700
H149        H  0.91979416  0.13418959  0.12033100     0.10700
H150        H  0.05688295  0.12697824  0.09650115     0.16500
C151        C  0.14114711  0.03892227  0.14197892    -0.01700
C152        C  0.16007911  0.01142563  0.14076896     0.06900
C153        C  0.14789454  0.97961396  0.11150292    -0.07600
C154        C  0.11776279  0.97538490  0.08289637     0.04400
C155        C  0.09899553  0.00344300  0.08353094    -0.14900
C156        C  0.11090646  0.03477801  0.11355289    -0.08200
C157        C  0.19338452  0.01573135  0.16934504     0.05300
C158        C  0.18001801  0.98496462  0.19945954    -0.09300
C159        C  0.21089833  0.98672018  0.22617663     0.00300
C160        C  0.25634529  0.01949570  0.22248833     0.00200
C161        C  0.26929542  0.05092895  0.19267492    -0.12900
C162        C  0.23826511  0.04925017  0.16619668     0.00600
C163        C  0.19461535  0.95545977  0.25769714     0.39900
C164        C  0.25327219  0.08159511  0.13552407     0.36500
C165        C  0.15228231  0.07153878  0.17215242     0.36300
C166        C  0.10821819  0.94299224  0.05280522     0.37000
N167        N  0.18145547  0.93050309  0.28302887    -0.43800
N168        N  0.26521476  0.10751666  0.11095173    -0.44200
N169        N  0.10071335  0.91702752  0.02873032    -0.41600
N170        N  0.16119163  0.09765300  0.19635848    -0.43000
H171        H  0.09673149  0.05635533  0.11484121     0.13200
H172        H  0.16265513  0.95852120  0.11068009     0.09700
H173        H  0.14528814  0.95954988  0.20208250     0.10700
H174        H  0.30394525  0.07629677  0.18943874     0.16500
C175        C  0.21948906  0.01808753  0.82119742    -0.01700
C176        C  0.19620794  0.98426408  0.84840237     0.06900
C177        C  0.20579437  0.94973674  0.85194403    -0.07600
C178        C  0.23866647  0.94886988  0.82895466     0.04400
C179        C  0.26248605  0.98312543  0.80178383    -0.14900
C180        C  0.25227999  0.01735246  0.79832496    -0.08200
C181        C  0.16298887  0.98566087  0.87432080     0.05300
C182        C  0.11786578  0.96153576  0.86457810    -0.09300
C183        C  0.08582514  0.96404323  0.88742950     0.00300
C184        C  0.09900861  0.99128405  0.92081317     0.00200
C185        C  0.14445752  0.01546260  0.93023655    -0.12900
C186        C  0.17626136  0.01270269  0.90746529     0.00600
C187        C  0.04001468  0.93925829  0.87524217     0.39900
C188        C  0.22237634  0.03760378  0.91877835     0.36500
C189        C  0.21017037  0.05389307  0.81629005     0.36300
C190        C  0.24848914  0.91360552  0.83516817     0.37000
N191        N  0.00332535  0.91937523  0.86540411    -0.43800
N192        N  0.25933655  0.05744550  0.92783127    -0.44200
N193        N  0.25639763  0.88536926  0.84019822    -0.41600
N194        N  0.20254901  0.08248396  0.81242857    -0.43000
H195        H  0.26969364  0.04351918  0.77748144     0.13200
H196        H  0.18810308  0.92390065  0.87316966     0.09700
H197        H  0.10776542  0.94113590  0.83876138     0.10700
H198        H  0.15525129  0.03604504  0.95593117     0.16500
C199        C  0.77826264  0.81425040  0.80363153    -0.01700
C200        C  0.78694018  0.80141014  0.83968399     0.06900
C201        C  0.76178109  0.75668968  0.85103378    -0.07600
C202        C  0.72966741  0.72470255  0.82661851     0.04400
C203        C  0.72145131  0.73751681  0.79047119    -0.14900
C204        C  0.74537269  0.78239216  0.77960394    -0.08200
C205        C  0.82164807  0.83408620  0.86613122     0.05300
C206        C  0.81961179  0.87172386  0.87779925    -0.09300
C207        C  0.85139937  0.90328090  0.90271609     0.00300
C208        C  0.88573207  0.89683033  0.91746088     0.00200
C209        C  0.88754360  0.85895151  0.90582641    -0.12900
C210        C  0.85622393  0.82793716  0.88024691     0.00600
C211        C  0.84691296  0.94115711  0.91315110     0.39900
C212        C  0.86082665  0.79052834  0.86840742     0.36500
C213        C  0.80369954  0.85951809  0.79001553     0.36300
C214        C  0.70481222  0.67915477  0.83967125     0.37000
N215        N  0.84326626  0.97154407  0.92122721    -0.43800
N216        N  0.86442847  0.76047680  0.85900764    -0.44200
N217        N  0.68480774  0.64261100  0.84998780    -0.41600
N218        N  0.82404893  0.89583923  0.77920980    -0.43000
H219        H  0.73936786  0.79232834  0.75170774     0.13200
H220        H  0.76737218  0.74671562  0.87906453     0.09700
H221        H  0.79273930  0.87631899  0.86756383     0.10700
H222        H  0.91375777  0.85360245  0.91654887     0.16500
C223        C  0.77429888  0.79836056  0.18430340    -0.01700
C224        C  0.80379369  0.79112266  0.16174118     0.06900
C225        C  0.80324677  0.75062489  0.16494253    -0.07600
C226        C  0.77252107  0.71663930  0.18905123     0.04400
C227        C  0.74140318  0.72304713  0.21061322    -0.14900
C228        C  0.74358513  0.76459674  0.20830745    -0.08200
C229        C  0.83429435  0.82489030  0.13365132     0.05300
C230        C  0.88002501  0.84853404  0.14110502    -0.09300
C231        C  0.90965287  0.88094962  0.11533623     0.00300
C232        C  0.89342247  0.89028178  0.08130007     0.00200
C233        C  0.84747483  0.86651711  0.07411406    -0.12900
C234        C  0.81807148  0.83377147  0.09966970     0.00600
C235        C  0.95632552  0.90459192  0.12503464     0.39900
C236        C  0.77151891  0.80850723  0.08982880     0.36500
C237        C  0.77512029  0.84034208  0.18339607     0.36300
C238        C  0.77309218  0.67536404  0.18983032     0.37000
N239        N  0.99372810  0.92346581  0.13275298    -0.43800
N240        N  0.73422158  0.78800914  0.08197039    -0.44200
N241        N  0.77381580  0.64240835  0.19041303    -0.41600
N242        N  0.77583785  0.87401033  0.18268847    -0.43000
H243        H  0.72117571  0.77096205  0.22533985     0.13200
H244        H  0.82622470  0.74517394  0.14777712     0.09700
H245        H  0.89254278  0.84176093  0.16725854     0.10700
H246        H  0.83454565  0.87257723  0.04786723     0.16500
C247        C  0.27068444  0.80490242  0.38930852    -0.01700
C248        C  0.29877703  0.82466648  0.35741296     0.06900
C249        C  0.32989951  0.81196263  0.34751010    -0.07600
C250        C  0.33556965  0.78221573  0.37055582     0.04400
C251        C  0.31031700  0.76549576  0.40480407    -0.14900
C252        C  0.27656340  0.77554419  0.41271303    -0.08200
C253        C  0.30216138  0.86439541  0.33877656     0.05300
C254        C  0.33301357  0.90584801  0.35391385    -0.09300
C255        C  0.33856191  0.94512134  0.33798578     0.00300
C256        C  0.31320972  0.94339382  0.30532776     0.00200
C257        C  0.28159597  0.90135328  0.29062854    -0.12900
C258        C  0.27584487  0.86199104  0.30720767     0.00600
C259        C  0.36952190  0.98619042  0.35704086     0.39900
C260        C  0.24282479  0.81960278  0.29162925     0.36500
C261        C  0.23727491  0.81619899  0.39961739     0.36300
C262        C  0.36791037  0.77008340  0.35849957     0.37000
N263        N  0.39428813  0.01893169  0.37251214    -0.43800
N264        N  0.21623949  0.78555474  0.27929952    -0.44200
N265        N  0.39369963  0.76022349  0.34879483    -0.41600
N266        N  0.21041006  0.82519798  0.40769015    -0.43000
H267        H  0.25616091  0.76232898  0.43830404     0.13200
H268        H  0.35122063  0.82694651  0.32265993     0.09700
H269        H  0.35267807  0.90742219  0.37871925     0.10700
H270        H  0.26148301  0.89910950  0.26600542     0.16500
C271        C  0.30212537  0.76945354  0.64059380    -0.01700
C272        C  0.31963186  0.81568494  0.63746655     0.06900
C273        C  0.33889675  0.83699862  0.60263696    -0.07600
C274        C  0.34100570  0.81309582  0.57097078     0.04400
C275        C  0.32369130  0.76657124  0.57389702    -0.14900
C276        C  0.30410858  0.74528898  0.60892165    -0.08200
C277        C  0.31953890  0.84333805  0.67009001     0.05300
C278        C  0.36033018  0.87399477  0.68655769    -0.09300
C279        C  0.36331306  0.90620623  0.71255984     0.00300
C280        C  0.32491772  0.90855982  0.72202274     0.00200
C281        C  0.28349886  0.87549218  0.70798123    -0.12900
C282        C  0.28057983  0.84305217  0.68203876     0.00600
C283        C  0.40637144  0.93687794  0.72855108     0.39900
C284        C  0.23778153  0.81175333  0.66610676     0.36500
C285        C  0.28317287  0.74649140  0.67630851     0.36300
C286        C  0.36015836  0.83729146  0.53572821     0.37000
N287        N  0.44092122  0.96122956  0.74137339    -0.43800
N288        N  0.20344758  0.78654536  0.65342386    -0.44200
N289        N  0.37550968  0.85673391  0.50752457    -0.41600
N290        N  0.26803156  0.72824900  0.70502018    -0.43000
H291        H  0.29109843  0.70981600  0.61187848     0.13200
H292        H  0.35223892  0.87261449  0.60018718     0.09700
H293        H  0.39022269  0.87372746  0.67794344     0.10700
H294        H  0.25378413  0.87682059  0.71506945     0.16500
C295        C  0.58665242  0.74049514  0.65764423    -0.01700
C296        C  0.54549184  0.70467524  0.64565587     0.06900
C297        C  0.53034219  0.66232493  0.66126338    -0.07600
C298        C  0.55648993  0.65467506  0.68707142     0.04400
C299        C  0.59899617  0.68991172  0.69743021    -0.14900
C300        C  0.61297613  0.73294508  0.68357942    -0.08200
C301        C  0.51905372  0.70909038  0.61449310     0.05300
C302        C  0.51721611  0.68899798  0.57897699    -0.09300
C303        C  0.48896668  0.68750917  0.54978577     0.00300
C304        C  0.46097572  0.70561533  0.55629649     0.00200
C305        C  0.46472307  0.72792471  0.59123507    -0.12900
C306        C  0.49353753  0.72980563  0.62026854     0.00600
C307        C  0.49005684  0.66780106  0.51334953     0.39900
C308        C  0.49521220  0.75164342  0.65619061     0.36500
C309        C  0.60348553  0.78459117  0.64214630     0.36300
C310        C  0.53872011  0.61037760  0.70253894     0.37000
N311        N  0.49106772  0.65221394  0.48410479    -0.43800
N312        N  0.49682400  0.76935549  0.68494176    -0.44200
N313        N  0.52425979  0.57487529  0.71494920    -0.41600
N314        N  0.61690965  0.81994911  0.62974020    -0.43000
H315        H  0.64549032  0.76024728  0.69137295     0.13200
H316        H  0.49833336  0.63488348  0.65245517     0.09700
H317        H  0.53756422  0.67381987  0.57429853     0.10700
H318        H  0.44392797  0.74246875  0.59649417     0.16500
C319        C  0.45380078  0.65376395  0.33660542    -0.01700
C320        C  0.49953509  0.68511390  0.33754378     0.06900
C321        C  0.51512379  0.72171617  0.36244632    -0.07600
C322        C  0.48644930  0.72539102  0.38875101     0.04400
C323        C  0.44114222  0.69142926  0.39061180    -0.14900
C324        C  0.42511619  0.65700388  0.36304090    -0.08200
C325        C  0.53225407  0.67687321  0.31715426     0.05300
C326        C  0.55739398  0.70440524  0.28666070    -0.09300
C327        C  0.59044185  0.69870218  0.26861656     0.00300
C328        C  0.59922293  0.66514241  0.28169844     0.00200
C329        C  0.57276497  0.63702210  0.31171710    -0.12900
C330        C  0.53995682  0.64276819  0.32949080     0.00600
C331        C  0.61414661  0.72765891  0.23678050     0.39900
C332        C  0.51592350  0.61441295  0.36162486     0.36500
C333        C  0.43599972  0.61698642  0.30976667     0.36300
C334        C  0.50531232  0.76313643  0.41457075     0.37000
N335        N  0.63277505  0.75095839  0.21119059    -0.43800
N336        N  0.49666934  0.59176060  0.38736993    -0.44200
N337        N  0.52055613  0.79353048  0.43511042    -0.41600
N338        N  0.42184944  0.58757336  0.28820070    -0.43000
H339        H  0.39032415  0.63140558  0.36303432     0.13200
H340        H  0.55030804  0.74618235  0.36281436     0.09700
H341        H  0.55128887  0.73056272  0.27709248     0.10700
H342        H  0.57843976  0.61103631  0.32250109     0.16500
C343        C  0.14723240  0.41227747  0.62302286    -0.01700
C344        C  0.17974436  0.45110073  0.64179409     0.06900
C345        C  0.17732377  0.45501057  0.68186144    -0.07600
C346        C  0.14181460  0.42191566  0.70301257     0.04400
C347        C  0.10812358  0.38431969  0.68386705    -0.14900
C348        C  0.11172681  0.37933043  0.64415992    -0.08200
C349        C  0.21160503  0.49068620  0.61944966     0.05300
C350        C  0.20432471  0.52685933  0.61794734    -0.09300
C351        C  0.22948999  0.56285620  0.59356051     0.00300
C352        C  0.26300839  0.56316065  0.57024737     0.00200
C353        C  0.27206622  0.52812677  0.57349304    -0.12900
C354        C  0.24644001  0.49182148  0.59768096     0.00600
C355        C  0.22009004  0.59892405  0.59302530     0.39900
C356        C  0.25569316  0.45571023  0.59906525     0.36500
C357        C  0.14765752  0.40711422  0.58174658     0.36300
C358        C  0.13849544  0.42924443  0.74353306     0.37000
N359        N  0.21238614  0.62770445  0.59270347    -0.43800
N360        N  0.26300108  0.42668071  0.60008849    -0.44200
N361        N  0.13576650  0.43534390  0.77595942    -0.41600
N362        N  0.14804941  0.40296974  0.54868325    -0.43000
H363        H  0.08552167  0.35064517  0.62933979     0.13200
H364        H  0.20191359  0.48510894  0.69624698     0.09700
H365        H  0.17774572  0.52619360  0.63493734     0.10700
H366        H  0.29779948  0.52807881  0.55578234     0.16500
C367        C  0.19540151  0.54820454  0.34710051    -0.01700
C368        C  0.17565966  0.50212305  0.35406685     0.06900
C369        C  0.18816887  0.48749422  0.38675726    -0.07600
C370        C  0.21839077  0.51789326  0.41332700     0.04400
C371        C  0.23690969  0.56412078  0.40719510    -0.14900
C372        C  0.22548264  0.57871959  0.37374190    -0.08200
C373        C  0.13890026  0.46843082  0.32995271     0.05300
C374        C  0.14394837  0.43536077  0.31120213    -0.09300
C375        C  0.10803432  0.39968642  0.29234929     0.00300
C376        C  0.06588148  0.39681344  0.29202860     0.00200
C377        C  0.06172108  0.43111208  0.30975947    -0.12900
C378        C  0.09734425  0.46619426  0.32895030     0.00600
C379        C  0.11519727  0.36561362  0.27572729     0.39900
C380        C  0.08952744  0.49785849  0.34958341     0.36500
C381        C  0.18503077  0.56489959  0.31301829     0.36300
C382        C  0.22733081  0.50054323  0.44780157     0.37000
N383        N  0.12114905  0.33836720  0.26254548    -0.43800
N384        N  0.08334570  0.52323492  0.36616531    -0.44200
N385        N  0.23434351  0.48663421  0.47547994    -0.41600
N386        N  0.17662377  0.57833080  0.28578692    -0.43000
H387        H  0.23997575  0.61409101  0.36846010     0.13200
H388        H  0.17278312  0.45209110  0.39236044     0.09700
H389        H  0.17577542  0.43672116  0.31238757     0.10700
H390        H  0.02995335  0.42990918  0.30987063     0.16500
C391        C  0.86957887  0.28384787  0.67805859    -0.01700
C392        C  0.87219335  0.32141970  0.66002564     0.06900
C393        C  0.91223044  0.36206442  0.66127149    -0.07600
C394        C  0.95016698  0.36518885  0.67817656     0.04400
C395        C  0.94842559  0.32685598  0.69417274    -0.14900
C396        C  0.90751215  0.28680317  0.69491089    -0.08200
C397        C  0.83455328  0.31878615  0.63778947     0.05300
C398        C  0.81551238  0.34428219  0.64949933    -0.09300
C399        C  0.78217340  0.34513040  0.62752519     0.00300
C400        C  0.76753193  0.32016030  0.59301159     0.00200
C401        C  0.78602322  0.29393423  0.58192029    -0.12900
C402        C  0.81950923  0.29342986  0.60364331     0.00600
C403        C  0.76310457  0.37118388  0.64141224     0.39900
C404        C  0.83950138  0.26845063  0.58917797     0.36500
C405        C  0.82845326  0.24183135  0.67919948     0.36300
C406        C  0.99012422  0.40831229  0.67901187     0.37000
N407        N  0.74774217  0.39195695  0.65261872    -0.43800
N408        N  0.85547203  0.24840083  0.57758016    -0.44200
N409        N  0.02208217  0.44289197  0.67969926    -0.41600
N410        N  0.79549132  0.20814222  0.67996494    -0.43000
H411        H  0.90541709  0.25727793  0.70749718     0.13200
H412        H  0.91413670  0.39122511  0.64803935     0.09700
H413        H  0.82703151  0.36384442  0.67573349     0.10700
H414        H  0.77559814  0.27509797  0.55524559     0.16500
C415        C  0.82438377  0.32467743  0.40542243    -0.01700
C416        C  0.80527575  0.30125151  0.37104293     0.06900
C417        C  0.75902297  0.27891525  0.36657175    -0.07600
C418        C  0.73175329  0.28093498  0.39548767     0.04400
C419        C  0.75113457  0.30586384  0.42949094    -0.14900
C420        C  0.79743932  0.32707223  0.43401796    -0.08200
C421        C  0.83403484  0.30109309  0.33961944     0.05300
C422        C  0.83761767  0.26306294  0.33364672    -0.09300
C423        C  0.87222732  0.26524527  0.31114356     0.00300
C424        C  0.90397512  0.30627047  0.29473174     0.00200
C425        C  0.89792206  0.34317283  0.29817081    -0.12900
C426        C  0.86300238  0.34072435  0.32002908     0.00600
C427        C  0.87652810  0.22608981  0.30831272     0.39900
C428        C  0.85881364  0.37991505  0.32372780     0.36500
C429        C  0.87171490  0.34632146  0.41208442     0.36300
C430        C  0.68441289  0.25841606  0.38882316     0.37000
N431        N  0.87976485  0.19456952  0.30613768    -0.43800
N432        N  0.85529096  0.41120556  0.32676024    -0.44200
N433        N  0.64647471  0.24027725  0.38346998    -0.41600
N434        N  0.90963033  0.36359434  0.41729001    -0.43000
H435        H  0.81281913  0.34550805  0.46017877     0.13200
H436        H  0.74435812  0.26064616  0.34018921     0.09700
H437        H  0.81516783  0.23250284  0.34861443     0.10700
H438        H  0.92165303  0.37456758  0.28502154     0.16500
C439        C  0.64329974  0.51090042  0.31707820    -0.01700
C440        C  0.68120400  0.52116137  0.33911608     0.06900
C441        C  0.72006816  0.56235711  0.33404756    -0.07600
C442        C  0.72060602  0.59459428  0.30950050     0.04400
C443        C  0.68149712  0.58570075  0.28979549    -0.14900
C444        C  0.64355888  0.54324691  0.29297702    -0.08200
C445        C  0.67969384  0.49119066  0.37013801     0.05300
C446        C  0.70327590  0.46850338  0.36580523    -0.09300
C447        C  0.70299367  0.44048510  0.39494966     0.00300
C448        C  0.67909422  0.43533080  0.42956211     0.00200
C449        C  0.65553856  0.45829494  0.43359065    -0.12900
C450        C  0.65573741  0.48602328  0.40441281     0.00600
C451        C  0.72648562  0.41666711  0.38787553     0.39900
C452        C  0.63189205  0.50965924  0.41065649     0.36500
C453        C  0.60354097  0.46777267  0.31954308     0.36300
C454        C  0.76049723  0.63762525  0.30766381     0.37000
N455        N  0.74526293  0.39755174  0.38209762    -0.43800
N456        N  0.61276922  0.52856392  0.41566897    -0.44200
N457        N  0.79245992  0.67213849  0.30616755    -0.41600
N458        N  0.57182586  0.43310003  0.32145890    -0.43000
H459        H  0.61351029  0.53588138  0.27761729     0.13200
H460        H  0.74935848  0.57015898  0.35082231     0.09700
H461        H  0.72163828  0.47243404  0.33939442     0.10700
H462        H  0.63721137  0.45506989  0.45987122     0.16500
C463        C  0.63272109  0.52651744  0.68413579    -0.01700
C464        C  0.67431771  0.52913666  0.68041418     0.06900
C465        C  0.71198343  0.56515227  0.69686481    -0.07600
C466        C  0.70910463  0.59959307  0.71532981     0.04400
C467        C  0.66784333  0.59852768  0.71671897    -0.14900
C468        C  0.62983385  0.56098603  0.70214820    -0.08200
C469        C  0.67973578  0.49789639  0.65496377     0.05300
C470        C  0.70051082  0.51368641  0.61923007    -0.09300
C471        C  0.70013038  0.48442443  0.59128424     0.00300
C472        C  0.67868916  0.43831512  0.59912802     0.00200
C473        C  0.65964493  0.42283386  0.63561542    -0.12900
C474        C  0.66032888  0.45229502  0.66360773     0.00600
C475        C  0.71890550  0.50226020  0.55390817     0.39900
C476        C  0.64032949  0.43510069  0.70071852     0.36500
C477        C  0.59298633  0.49020785  0.66748435     0.36300
C478        C  0.74953038  0.63659037  0.73025514     0.37000
N479        N  0.73375993  0.51645542  0.52390701    -0.43800
N480        N  0.62433935  0.42146580  0.73051039    -0.44200
N481        N  0.78196325  0.66609633  0.74234061    -0.41600
N482        N  0.56118536  0.46099432  0.65423903    -0.43000
H483        H  0.59786492  0.55928150  0.70347898     0.13200
H484        H  0.74399869  0.56714179  0.69393998     0.09700
H485        H  0.71513215  0.54875780  0.61246817     0.10700
H486        H  0.64370472  0.38758767  0.64207651     0.16500
C487        C  0.47493663  0.10730624  0.69700586    -0.01700
C488        C  0.46868565  0.14283067  0.68607343     0.06900
C489        C  0.42973616  0.14248520  0.69735277    -0.07600
C490        C  0.39618155  0.10642273  0.71770719     0.04400
C491        C  0.40182949  0.07007625  0.72763030    -0.14900
C492        C  0.44208816  0.07195592  0.71817847    -0.08200
C493        C  0.49936097  0.17714152  0.65854477     0.05300
C494        C  0.48310405  0.17841935  0.62195821    -0.09300
C495        C  0.51155279  0.20639874  0.59325954     0.00300
C496        C  0.55741128  0.23340322  0.60093141     0.00200
C497        C  0.57346805  0.23317778  0.63792352    -0.12900
C498        C  0.54469335  0.20587106  0.66689858     0.00600
C499        C  0.49316670  0.20486172  0.55565157     0.39900
C500        C  0.56217638  0.20805008  0.70499776     0.36500
C501        C  0.51279418  0.10423716  0.68389220     0.36300
C502        C  0.35511498  0.10617533  0.72452513     0.37000
N503        N  0.47841809  0.20368885  0.52555396    -0.43800
N504        N  0.57603354  0.20976039  0.73559662    -0.44200
N505        N  0.32243130  0.10668446  0.72931770    -0.41600
N506        N  0.54299617  0.10166092  0.67323004    -0.43000
H507        H  0.44697011  0.04438110  0.72548331     0.13200
H508        H  0.42458501  0.16946737  0.68842140     0.09700
H509        H  0.44826026  0.15633110  0.61541652     0.10700
H510        H  0.60849316  0.25454274  0.64421897     0.16500
C511        C  0.42373715  0.16505715  0.33797283    -0.01700
C512        C  0.46648559  0.16988874  0.33751386     0.06900
C513        C  0.47587883  0.14453887  0.31174093    -0.07600
C514        C  0.44225597  0.11192378  0.28882199     0.04400
C515        C  0.39862076  0.10461925  0.29153040    -0.14900
C516        C  0.39021091  0.13276521  0.31467973    -0.08200
C517        C  0.49903867  0.19521090  0.36805609     0.05300
C518        C  0.50247626  0.17133471  0.39897081    -0.09300
C519        C  0.53009398  0.19328189  0.43029627     0.00300
C520        C  0.55522608  0.24038580  0.43088604     0.00200
C521        C  0.55220597  0.26410338  0.39929324    -0.12900
C522        C  0.52442618  0.24192158  0.36804040     0.00600
C523        C  0.53034302  0.16637305  0.46180298     0.39900
C524        C  0.52256048  0.26762903  0.33628407     0.36500
C525        C  0.41252045  0.18974734  0.36485941     0.36300
C526        C  0.45263996  0.08477350  0.26416022     0.37000
N527        N  0.53029476  0.14460826  0.48698572    -0.43800
N528        N  0.52120267  0.28832710  0.31083108    -0.44200
N529        N  0.46091052  0.06305463  0.24429635    -0.41600
N530        N  0.40364968  0.20945058  0.38660257    -0.43000
H531        H  0.35656157  0.12680445  0.31727944     0.13200
H532        H  0.50881186  0.14837282  0.31130578     0.09700
H533        H  0.48257192  0.13527950  0.39898077     0.10700
H534        H  0.57166242  0.30015482  0.39888766     0.16500
loop_ 
_geom_bond_atom_site_label_1 
_geom_bond_atom_site_label_2 
_geom_bond_distance 
_geom_bond_site_symmetry_2 
_ccdc_geom_bond_type 
O1          Cr19   2.011       .  S
O1            C9   1.267       .  A
O2          Cr19   1.974       .  S
O2            C3   1.258       .  A
C3            O4   1.267       .  A
C3          C419   1.482       .  S
O4          Cr20   2.004       .  S
O5          Cr20   1.978       .  S
O5            C6   1.259       .  A
C6            O7   1.266       .  A
C6          C448   1.488       .  S
O7          Cr21   2.007       .  S
O8          Cr21   1.969       .  S
O8            C9   1.260       .  A
C9          C520   1.485       .  S
O10         Cr19   1.977       .  S
O10          C18   1.259       .  A
O11         Cr19   2.009       .  S
O11          C12   1.267       .  A
C12          O13   1.260       .  A
C12         C400   1.482       .  S
O13         Cr20   1.976       .  S
O14         Cr20   2.007       .  S
O14          C15   1.267       .  A
C15          O16   1.260       .  A
C15         C472   1.476       .  S
O16         Cr21   1.974       .  S
O17         Cr21   2.004       .  S
O17          C18   1.264       .  A
C18         C496   1.475       .  S
Cr19         O22   1.764       .  S
Cr20         O22   1.762       .  S
Cr21         O22   1.764       .  S
O23         Cr41   2.004       .  S
O23          C31   1.266       .  A
O24         Cr41   1.979       .  S
O24          C25   1.260       .  A
C25          O26   1.266       .  A
C25         C275   1.488       .  S
O26         Cr42   2.008       .  S
O27         Cr42   1.977       .  S
O27          C28   1.261       .  A
C28          O29   1.267       .  A
C28         C304   1.483       .  S
O29         Cr43   2.005       .  S
O30         Cr43   1.975       .  S
O30          C31   1.260       .  A
C31         C352   1.478       .  S
O32         Cr41   1.978       .  S
O32          C40   1.260       .  A
O33         Cr41   2.008       .  S
O33          C34   1.266       .  A
C34          O35   1.259       .  A
C34         C251   1.486       .  S
O35         Cr42   1.971       .  S
O36         Cr42   2.011       .  S
O36          C37   1.265       .  A
C37          O38   1.259       .  A
C37         C323   1.490       .  S
O38         Cr43   1.973       .  S
O39         Cr43   2.003       .  S
O39          C40   1.264       .  A
C40         C371   1.480       .  S
Cr41         O44   1.766       .  S
Cr42         O44   1.767       .  S
Cr43         O44   1.766       .  S
C45         C227   1.494       .  S
C45          N46   1.362       .  A
C45          N50   1.363       .  A
N46          C47   1.360       .  A
C47         C443   1.481       .  S
C47          N48   1.354       .  A
N48          C49   1.356       .  A
C49         C328   1.495       .  S
C49          N50   1.358       .  A
C51         C203   1.473       .  S
C51          N52   1.360       .  A
C51          N56   1.358       .  A
N52          C53   1.359       .  A
C53         C299   1.479       .  S
C53          N54   1.356       .  A
N54          C55   1.356       .  A
C55         C467   1.484       .  S
C55          N56   1.356       .  A
C57         C179   1.488       .  S
C57          N58   1.364   1_565  A
C57          N62   1.364       .  A
N58          C59   1.358       .  A
C59         C491   1.483       .  S
C59          N60   1.353   1_545  A
N60          C61   1.352       .  A
C61         C280   1.482       .  S
C61          N62   1.360       .  A
C63         C160   1.483       .  S
C63          N64   1.362       .  A
C63          N68   1.362   1_545  A
N64          C65   1.356       .  A
C65         C515   1.470       .  S
C65          N66   1.352       .  A
N66          C67   1.353   1_545  A
C67         C256   1.490       .  S
C67          N68   1.359       .  A
C69         C131   1.482       .  S
C69          N70   1.360       .  A
C69          N74   1.362   1_655  A
N70          C71   1.356       .  A
C71         C424   1.476       .  S
C71          N72   1.354       .  A
N72          C73   1.356   1_655  A
C73         C376   1.493       .  S
C73          N74   1.360       .  A
C75         C107   1.490       .  S
C75          N76   1.363   1_455  A
C75          N80   1.362       .  A
N76          C77   1.359       .  A
C77         C395   1.485       .  S
C77          N78   1.354   1_655  A
N78          C79   1.353       .  A
C79         C347   1.470       .  S
C79          N80   1.357       .  A
O81         Cr99   2.022   1_554  S
O81          C89   1.270       .  A
O82         Cr99   1.970   1_544  S
O82          C83   1.258       .  A
C83          O84   1.266   1_655  A
C83         C136   1.479       .  S
O84        Cr100   2.011       .  S
O85        Cr100   1.969       .  S
O85          C86   1.260       .  A
C86          O87   1.267   1_545  A
C86         C155   1.487       .  S
O87        Cr101   2.011   1_454  S
O88        Cr101   1.968   1_554  S
O88          C89   1.258       .  A
C89         C232   1.487       .  S
O90         Cr99   1.967       .  S
O90          C98   1.257       .  A
O91         Cr99   2.018   1_545  S
O91          C92   1.270   1_655  A
C92          O93   1.260       .  A
C92         C112   1.490       .  S
O93        Cr100   1.970   1_556  S
O94        Cr100   2.014   1_556  S
O94          C95   1.268   1_545  A
C95          O96   1.259       .  A
C95         C184   1.488       .  S
O96        Cr101   1.974   1_455  S
O97        Cr101   2.013       .  S
O97          C98   1.267       .  A
C98         C208   1.486       .  S
Cr99        O102   1.768       .  S
Cr100       O102   1.766   1_444  S
Cr101       O102   1.767       .  S
C103        C104   1.410   1_655  A
C103        C108   1.400       .  A
C103        C117   1.444       .  S
C104        C109   1.488       .  S
C104        C105   1.402       .  A
C105        C106   1.401       .  A
C105        H124   1.085       .  S
C106        C107   1.418       .  A
C106        C118   1.444       .  S
C107        C108   1.408   1_455  A
C108        H123   1.085       .  S
C109        C110   1.402       .  A
C109        C114   1.410   1_455  A
C110        C111   1.401       .  A
C110        H125   1.085       .  S
C111        C112   1.418       .  A
C111        C115   1.445       .  S
C112        C113   1.408   1_455  A
C113        C114   1.401       .  A
C113        H126   1.085       .  S
C114        C116   1.444       .  S
C115        N119   1.158       .  T
C116        N120   1.157       .  T
C117        N122   1.157       .  T
C118        N121   1.157       .  T
C127        C128   1.411       .  A
C127        C132   1.399       .  A
C127        C141   1.444       .  S
C128        C133   1.489       .  S
C128        C129   1.405   1_655  A
C129        C130   1.400       .  A
C129        H148   1.084       .  S
C130        C131   1.413   1_455  A
C130        C142   1.444       .  S
C131        C132   1.405       .  A
C132        H147   1.084       .  S
C133        C134   1.404       .  A
C133        C138   1.412   1_655  A
C134        C135   1.400       .  A
C134        H149   1.085       .  S
C135        C136   1.414       .  A
C135        C139   1.445       .  S
C136        C137   1.403   1_655  A
C137        C138   1.400       .  A
C137        H150   1.085       .  S
C138        C140   1.444       .  S
C139        N143   1.157       .  T
C140        N144   1.157       .  T
C141        N146   1.157       .  T
C142        N145   1.157       .  T
C151        C152   1.406       .  A
C151        C156   1.398       .  A
C151        C165   1.444       .  S
C152        C157   1.477       .  S
C152        C153   1.399   1_545  A
C153        C154   1.399       .  A
C153        H172   1.085       .  S
C154        C155   1.419   1_565  A
C154        C166   1.444       .  S
C155        C156   1.409       .  A
C156        H171   1.085       .  S
C157        C158   1.399   1_545  A
C157        C162   1.408       .  A
C158        C159   1.400       .  A
C158        H173   1.085       .  S
C159        C160   1.416   1_565  A
C159        C163   1.444       .  S
C160        C161   1.407       .  A
C161        C162   1.399       .  A
C161        H174   1.085       .  S
C162        C164   1.444       .  S
C163        N167   1.157       .  T
C164        N168   1.157       .  T
C165        N170   1.157       .  T
C166        N169   1.157       .  T
C175        C176   1.406   1_545  A
C175        C180   1.398       .  A
C175        C189   1.444       .  S
C176        C181   1.482       .  S
C176        C177   1.402       .  A
C177        C178   1.404       .  A
C177        H196   1.084       .  S
C178        C179   1.416       .  A
C178        C190   1.444       .  S
C179        C180   1.406   1_565  A
C180        H195   1.080       .  S
C181        C182   1.401       .  A
C181        C186   1.407   1_565  A
C182        C183   1.403       .  A
C182        H197   1.085       .  S
C183        C184   1.418       .  A
C183        C187   1.444       .  S
C184        C185   1.408   1_565  A
C185        C186   1.399       .  A
C185        H198   1.085       .  S
C186        C188   1.444       .  S
C187        N191   1.157       .  T
C188        N192   1.157       .  T
C189        N194   1.157       .  T
C190        N193   1.157       .  T
C199        C200   1.414       .  A
C199        C204   1.400       .  A
C199        C213   1.444       .  S
C200        C205   1.488       .  S
C200        C201   1.404       .  A
C201        C202   1.399       .  A
C201        H220   1.085       .  S
C202        C203   1.410       .  A
C202        C214   1.444       .  S
C203        C204   1.402       .  A
C204        H219   1.085       .  S
C205        C206   1.402       .  A
C205        C210   1.412       .  A
C206        C207   1.399       .  A
C206        H221   1.085       .  S
C207        C208   1.418       .  A
C207        C211   1.445       .  S
C208        C209   1.406       .  A
C209        C210   1.400       .  A
C209        H222   1.085       .  S
C210        C212   1.444       .  S
C211        N215   1.157       .  T
C212        N216   1.157       .  T
C213        N218   1.157       .  T
C214        N217   1.157       .  T
C223        C224   1.407       .  A
C223        C228   1.399       .  A
C223        C237   1.444       .  S
C224        C229   1.485       .  S
C224        C225   1.402       .  A
C225        C226   1.404       .  A
C225        H244   1.085       .  S
C226        C227   1.420       .  A
C226        C238   1.444       .  S
C227        C228   1.409       .  A
C228        H243   1.084       .  S
C229        C230   1.401       .  A
C229        C234   1.410       .  A
C230        C231   1.403       .  A
C230        H245   1.085       .  S
C231        C232   1.418       .  A
C231        C235   1.445       .  S
C232        C233   1.406       .  A
C233        C234   1.401       .  A
C233        H246   1.085       .  S
C234        C236   1.444       .  S
C235        N239   1.158       .  T
C236        N240   1.157       .  T
C237        N242   1.157       .  T
C238        N241   1.157       .  T
C247        C248   1.406       .  A
C247        C252   1.399       .  A
C247        C261   1.444       .  S
C248        C253   1.476       .  S
C248        C249   1.400       .  A
C249        C250   1.399       .  A
C249        H268   1.085       .  S
C250        C251   1.417       .  A
C250        C262   1.445       .  S
C251        C252   1.408       .  A
C252        H267   1.084       .  S
C253        C254   1.396       .  A
C253        C258   1.406       .  A
C254        C255   1.394       .  A
C254        H269   1.086       .  S
C255        C256   1.421       .  A
C255        C259   1.446       .  S
C256        C257   1.411       .  A
C257        C258   1.404       .  A
C257        H270   1.084       .  S
C258        C260   1.443       .  S
C259        N263   1.158   1_565  T
C260        N264   1.157       .  T
C261        N266   1.157       .  T
C262        N265   1.158       .  T
C271        C272   1.407       .  A
C271        C276   1.403       .  A
C271        C285   1.443       .  S
C272        C277   1.483       .  S
C272        C273   1.401       .  A
C273        C274   1.399       .  A
C273        H292   1.085       .  S
C274        C275   1.417       .  A
C274        C286   1.445       .  S
C275        C276   1.409       .  A
C276        H291   1.084       .  S
C277        C278   1.400       .  A
C277        C282   1.411       .  A
C278        C279   1.398       .  A
C278        H293   1.085       .  S
C279        C280   1.415       .  A
C279        C283   1.445       .  S
C280        C281   1.405       .  A
C281        C282   1.403       .  A
C281        H294   1.085       .  S
C282        C284   1.443       .  S
C283        N287   1.157       .  T
C284        N288   1.157       .  T
C285        N290   1.157       .  T
C286        N289   1.157       .  T
C295        C296   1.409       .  A
C295        C300   1.402       .  A
C295        C309   1.443       .  S
C296        C301   1.480       .  S
C296        C297   1.400       .  A
C297        C298   1.397       .  A
C297        H316   1.085       .  S
C298        C299   1.414       .  A
C298        C310   1.445       .  S
C299        C300   1.406       .  A
C300        H315   1.085       .  S
C301        C302   1.400       .  A
C301        C306   1.408       .  A
C302        C303   1.397       .  A
C302        H317   1.085       .  S
C303        C304   1.416       .  A
C303        C307   1.445       .  S
C304        C305   1.408       .  A
C305        C306   1.402       .  A
C305        H318   1.084       .  S
C306        C308   1.443       .  S
C307        N311   1.158       .  T
C308        N312   1.157       .  T
C309        N314   1.157       .  T
C310        N313   1.157       .  T
C319        C320   1.407       .  A
C319        C324   1.398       .  A
C319        C333   1.444       .  S
C320        C325   1.482       .  S
C320        C321   1.400       .  A
C321        C322   1.402       .  A
C321        H340   1.085       .  S
C322        C323   1.419       .  A
C322        C334   1.444       .  S
C323        C324   1.408       .  A
C324        H339   1.084       .  S
C325        C326   1.401       .  A
C325        C330   1.407       .  A
C326        C327   1.405       .  A
C326        H341   1.085       .  S
C327        C328   1.421       .  A
C327        C331   1.443       .  S
C328        C329   1.409       .  A
C329        C330   1.394       .  A
C329        H342   1.084       .  S
C330        C332   1.446       .  S
C331        N335   1.157       .  T
C332        N336   1.157       .  T
C333        N338   1.157       .  T
C334        N337   1.157       .  T
C343        C344   1.411       .  A
C343        C348   1.399       .  A
C343        C357   1.445       .  S
C344        C349   1.481       .  S
C344        C345   1.404       .  A
C345        C346   1.401       .  A
C345        H364   1.085       .  S
C346        C347   1.409       .  A
C346        C358   1.443       .  S
C347        C348   1.402       .  A
C348        H363   1.085       .  S
C349        C350   1.401       .  A
C349        C354   1.409       .  A
C350        C351   1.397       .  A
C350        H365   1.085       .  S
C351        C352   1.412       .  A
C351        C355   1.444       .  S
C352        C353   1.406       .  A
C353        C354   1.402       .  A
C353        H366   1.085       .  S
C354        C356   1.443       .  S
C355        N359   1.157       .  T
C356        N360   1.157       .  T
C357        N362   1.157       .  T
C358        N361   1.157       .  T
C367        C368   1.411       .  A
C367        C372   1.400       .  A
C367        C381   1.444       .  S
C368        C373   1.485       .  S
C368        C369   1.402       .  A
C369        C370   1.399       .  A
C369        H388   1.085       .  S
C370        C371   1.415       .  A
C370        C382   1.445       .  S
C371        C372   1.405       .  A
C372        H387   1.085       .  S
C373        C374   1.403       .  A
C373        C378   1.408       .  A
C374        C375   1.404       .  A
C374        H389   1.085       .  S
C375        C376   1.419       .  A
C375        C379   1.444       .  S
C376        C377   1.409       .  A
C377        C378   1.396       .  A
C377        H390   1.084       .  S
C378        C380   1.445       .  S
C379        N383   1.157       .  T
C380        N384   1.157       .  T
C381        N386   1.157       .  T
C382        N385   1.157       .  T
C391        C392   1.411       .  A
C391        C396   1.401       .  A
C391        C405   1.444       .  S
C392        C397   1.485       .  S
C392        C393   1.401       .  A
C393        C394   1.400       .  A
C393        H412   1.085       .  S
C394        C395   1.417       .  A
C394        C406   1.445       .  S
C395        C396   1.406       .  A
C396        H411   1.084       .  S
C397        C398   1.404       .  A
C397        C402   1.410       .  A
C398        C399   1.403       .  A
C398        H413   1.085       .  S
C399        C400   1.415       .  A
C399        C403   1.444       .  S
C400        C401   1.405       .  A
C401        C402   1.397       .  A
C401        H414   1.085       .  S
C402        C404   1.445       .  S
C403        N407   1.157       .  T
C404        N408   1.157       .  T
C405        N410   1.157       .  T
C406        N409   1.158   1_655  T
C415        C416   1.409       .  A
C415        C420   1.393       .  A
C415        C429   1.445       .  S
C416        C421   1.479       .  S
C416        C417   1.401       .  A
C417        C418   1.404       .  A
C417        H436   1.085       .  S
C418        C419   1.418       .  A
C418        C430   1.444       .  S
C419        C420   1.404       .  A
C420        H435   1.085       .  S
C421        C422   1.402       .  A
C421        C426   1.409       .  A
C422        C423   1.402       .  A
C422        H437   1.085       .  S
C423        C424   1.414       .  A
C423        C427   1.443       .  S
C424        C425   1.403       .  A
C425        C426   1.396       .  A
C425        H438   1.085       .  S
C426        C428   1.445       .  S
C427        N431   1.157       .  T
C428        N432   1.157       .  T
C429        N434   1.157       .  T
C430        N433   1.158       .  T
C439        C440   1.409       .  A
C439        C444   1.400       .  A
C439        C453   1.444       .  S
C440        C445   1.483       .  S
C440        C441   1.402       .  A
C441        C442   1.402       .  A
C441        H460   1.085       .  S
C442        C443   1.413       .  A
C442        C454   1.443       .  S
C443        C444   1.406       .  A
C444        H459   1.085       .  S
C445        C446   1.401       .  A
C445        C450   1.410       .  A
C446        C447   1.403       .  A
C446        H461   1.085       .  S
C447        C448   1.419       .  A
C447        C451   1.444       .  S
C448        C449   1.407       .  A
C449        C450   1.398       .  A
C449        H462   1.085       .  S
C450        C452   1.445       .  S
C451        N455   1.157       .  T
C452        N456   1.157       .  T
C453        N458   1.157       .  T
C454        N457   1.157       .  T
C463        C464   1.409       .  A
C463        C468   1.396       .  A
C463        C477   1.445       .  S
C464        C469   1.480       .  S
C464        C465   1.401       .  A
C465        C466   1.402       .  A
C465        H484   1.085       .  S
C466        C467   1.417       .  A
C466        C478   1.444       .  S
C467        C468   1.405       .  A
C468        H483   1.084       .  S
C469        C470   1.401       .  A
C469        C474   1.409       .  A
C470        C471   1.398       .  A
C470        H485   1.085       .  S
C471        C472   1.414       .  A
C471        C475   1.445       .  S
C472        C473   1.405       .  A
C473        C474   1.400       .  A
C473        H486   1.085       .  S
C474        C476   1.443       .  S
C475        N479   1.157       .  T
C476        N480   1.157       .  T
C477        N482   1.157       .  T
C478        N481   1.157       .  T
C487        C488   1.409       .  A
C487        C492   1.395       .  A
C487        C501   1.445       .  S
C488        C493   1.483       .  S
C488        C489   1.403       .  A
C489        C490   1.402       .  A
C489        H508   1.085       .  S
C490        C491   1.415       .  A
C490        C502   1.443       .  S
C491        C492   1.406       .  A
C492        H507   1.084       .  S
C493        C494   1.402       .  A
C493        C498   1.410       .  A
C494        C495   1.397       .  A
C494        H509   1.085       .  S
C495        C496   1.413       .  A
C495        C499   1.445       .  S
C496        C497   1.404       .  A
C497        C498   1.401       .  A
C497        H510   1.085       .  S
C498        C500   1.444       .  S
C499        N503   1.157       .  T
C500        N504   1.157       .  T
C501        N506   1.157       .  T
C502        N505   1.157       .  T
C511        C512   1.410       .  A
C511        C516   1.400       .  A
C511        C525   1.444       .  S
C512        C517   1.478       .  S
C512        C513   1.401       .  A
C513        C514   1.398       .  A
C513        H532   1.085       .  S
C514        C515   1.410       .  A
C514        C526   1.444       .  S
C515        C516   1.402       .  A
C516        H531   1.085       .  S
C517        C518   1.400       .  A
C517        C522   1.405       .  A
C518        C519   1.398       .  A
C518        H533   1.085       .  S
C519        C520   1.417       .  A
C519        C523   1.444       .  S
C520        C521   1.410       .  A
C521        C522   1.400       .  A
C521        H534   1.085       .  S
C522        C524   1.443       .  S
C523        N527   1.157       .  T
C524        N528   1.157       .  T
C525        N530   1.157       .  T
C526        N529   1.157       .  T
