geometry optimzed in LAMMPS
_audit_creation_date              2020-11-30 
_audit_creation_method            'lammps2cif' 
_symmetry_space_group_name_H-M    'P1' 
_symmetry_Int_Tables_number       1 
_symmetry_cell_setting            triclinic 
loop_ 
_symmetry_equiv_pos_as_xyz 
  x,y,z 
_cell_length_a                    32.43500952 
_cell_length_b                    32.7473183435017 
_cell_length_c                    56.7303323219778 
_cell_angle_alpha                 89.80008400493223 
_cell_angle_beta                  89.88014389369508 
_cell_angle_gamma                 111.57948037274919 
loop_ 
_atom_site_label 
_atom_site_type_symbol 
_atom_site_fract_x 
_atom_site_fract_y 
_atom_site_fract_z 
_atom_site_charge 
C1          C  0.96378963  0.98157918  0.72802208     0.47000
H2          H  0.96265229  0.98175705  0.70845328    -0.02000
C3          C  0.96645492  0.98084119  0.77390407     0.47100
H4          H  0.96729505  0.98044902  0.79346824    -0.02000
C5          C  0.95797039  0.02191106  0.73954923    -0.15700
C6          C  0.92839336  0.94086123  0.73920234    -0.15400
C7          C  0.00798103  0.98149631  0.73784678    -0.15800
C8          C  0.95922685  0.02135431  0.76384484    -0.15800
C9          C  0.92988762  0.94062631  0.76338172    -0.15400
C10         C  0.00963231  0.98178715  0.76213256    -0.15700
O11         O  0.60806569  0.27094864  0.99428926    -0.76900
C12         C  0.70580664  0.26636023  0.04809271     0.84100
O13         O  0.63631026  0.39976204  0.03918063    -0.78000
O14         O  0.79221300  0.40737199  0.03733419    -0.79500
O15         O  0.75350196  0.34282412  0.95979097    -0.79300
O16         O  0.64216948  0.30114149  0.96083143    -0.77900
Zn17       Zn  0.64725151  0.30552780  0.02071678     1.55700
O18         O  0.79139088  0.33923726  0.99197078    -0.79300
Cd19       Cd  0.69770641  0.35278625  0.97258254     1.59700
Cd20       Cd  0.69295878  0.41113515  0.01831098     1.59600
O21         O  0.69702764  0.41151109  0.95838756    -0.79300
O22         O  0.69751106  0.35440761  0.00792756    -1.89800
Cd23       Cd  0.75443856  0.35037007  0.01957714     1.59900
O24         O  0.69305746  0.45124267  0.98953068    -0.79300
O25         O  0.74165471  0.29769246  0.04246148    -0.77900
C26         C  0.60716373  0.36416340  0.04702083     0.84600
C27         C  0.60999200  0.27257156  0.97183152     0.84200
O28         O  0.66836107  0.26508736  0.04045142    -0.76900
C29         C  0.78651993  0.33746754  0.96963624     0.85100
O30         O  0.60860094  0.32693585  0.04161466    -0.77000
C31         C  0.69535894  0.44669887  0.96726852     0.85200
C32         C  0.78441889  0.44137126  0.04340522     0.85500
O33         O  0.74827263  0.44607801  0.03796421    -0.79400
N34         N  0.67330011  0.66758604  0.84950201    -0.01900
C35         C  0.69431052  0.68135105  0.82848437     0.00700
C36         C  0.66377149  0.67940786  0.81109770    -0.22200
C37         C  0.62295744  0.66532384  0.82168707    -0.22400
C38         C  0.62962915  0.65895064  0.84518617     0.00600
H39         H  0.67087037  0.69208387  0.79329030     0.14400
H40         H  0.59252968  0.66496237  0.81371795     0.14400
O41         O  0.23602670  0.69756190  0.02850814    -0.76900
C42         C  0.23484875  0.63359326  0.96195435     0.84100
O43         O  0.37585620  0.67491625  0.02544024    -0.78000
O44         O  0.36892060  0.71192365  0.94274262    -0.79500
O45         O  0.31598123  0.82054759  0.97812902    -0.79300
O46         O  0.26509936  0.77057201  0.02811269    -0.77900
Zn47       Zn  0.27631227  0.67628454  0.00883024     1.55700
O48         O  0.31003221  0.77955643  0.94596136    -0.79300
Cd49       Cd  0.32102342  0.78277652  0.00669484     1.59700
Cd50       Cd  0.38224282  0.72535825  0.00231841     1.59600
O51         O  0.37865748  0.81869560  0.02601279    -0.79300
O52         O  0.32272975  0.72604103  0.99417140    -1.89800
Cd53       Cd  0.31494847  0.72155755  0.95883166     1.59900
O54         O  0.42351091  0.78276074  0.01828267    -0.79300
O55         O  0.25944538  0.66608382  0.94949547    -0.77900
C56         C  0.34234005  0.64477374  0.03438799     0.84600
C57         C  0.23496274  0.73458212  0.03473762     0.84200
O58         O  0.23878157  0.63378398  0.98432201    -0.76900
C59         C  0.31159342  0.81519477  0.95583625     0.85100
O60         O  0.30291199  0.64191875  0.02969009    -0.77000
C61         C  0.41640353  0.81483730  0.02774288     0.85200
C62         C  0.40405670  0.70844878  0.95109460     0.85500
O63         O  0.41302695  0.71337709  0.97297319    -0.79400
N64         N  0.36112678  0.38307717  0.15018000    -0.01900
C65         C  0.34083860  0.36135137  0.16999607     0.00700
C66         C  0.32759047  0.38871346  0.18409554    -0.22200
C67         C  0.33968029  0.42835629  0.17270279    -0.22400
C68         C  0.36003973  0.42402460  0.15198127     0.00600
H69         H  0.30728730  0.37941041  0.19983793     0.14400
H70         H  0.33128617  0.45603593  0.17805733     0.14400
N71         N  0.32035602  0.08133653  0.86456672    -0.01900
C72         C  0.29092122  0.09114993  0.85096903     0.00700
C73         C  0.30800499  0.13468230  0.84414161    -0.22200
C74         C  0.34945136  0.15249038  0.85394221    -0.22400
C75         C  0.35628003  0.11920036  0.86648053     0.00600
H76         H  0.29202536  0.15159045  0.83318870     0.14400
H77         H  0.37163044  0.18647416  0.85270147     0.14400
N78         N  0.99639101  0.71409196  0.15188108    -0.01900
C79         C  0.98980857  0.73754207  0.17022603     0.00700
C80         C  0.95554190  0.71069078  0.18431643    -0.22200
C81         C  0.94032034  0.66981944  0.17424012    -0.22400
C82         C  0.96562099  0.67283113  0.15423537     0.00600
H83         H  0.94125815  0.72053243  0.19951238     0.14400
H84         H  0.91164601  0.64199818  0.17988847     0.14400
N85         N  0.03541091  0.32445190  0.86852800    -0.01900
C86         C  0.04016467  0.30122838  0.84950021     0.00700
C87         C  0.08193199  0.32120272  0.83972488    -0.22200
C88         C  0.10368118  0.35775674  0.85300631    -0.22400
C89         C  0.07455384  0.35920230  0.87044708     0.00600
H90         H  0.09544911  0.30982727  0.82476995     0.14400
H91         H  0.13708245  0.38101911  0.85016879     0.14400
N92         N  0.70878500  0.00243269  0.13665340    -0.01900
C93         C  0.73812534  0.99226909  0.15031916     0.00700
C94         C  0.72167916  0.94804859  0.15569217    -0.22200
C95         C  0.68095316  0.93029352  0.14506180    -0.22400
C96         C  0.67344555  0.96420709  0.13348908     0.00600
H97         H  0.73760555  0.93059979  0.16629771     0.14400
H98         H  0.65952527  0.89598500  0.14533444     0.14400
O99         O  0.67363425  0.25424590  0.46771953    -0.76900
C100        C  0.61409989  0.25917946  0.53670143     0.84100
O101        O  0.63960065  0.38733977  0.46866556    -0.78000
O102        O  0.69861199  0.40006064  0.55046873    -0.79500
O103        O  0.79581377  0.33252573  0.51661119    -0.79300
O104        O  0.74694631  0.28663470  0.46612115    -0.77900
Zn105      Zn  0.65171970  0.29355978  0.48780848     1.55700
O106        O  0.75772279  0.33369090  0.54914737    -0.79300
Cd107      Cd  0.75791540  0.33967272  0.48871558     1.59700
Cd108      Cd  0.69499039  0.39885305  0.49037015     1.59600
O109        O  0.79546690  0.39726869  0.47124506    -0.79300
O110        O  0.70076751  0.34274020  0.50081577    -1.89800
Cd111      Cd  0.70048236  0.34137120  0.53636428     1.59900
O112        O  0.75192197  0.43647793  0.47274892    -0.79300
O113        O  0.64500402  0.28861420  0.54790352    -0.77900
C114        C  0.61065393  0.35145620  0.46119860     0.84600
C115        C  0.71123313  0.25554706  0.46020017     0.84200
O116        O  0.61354549  0.25778673  0.51423118    -0.76900
C117        C  0.79187670  0.33103234  0.53900467     0.85100
O118        O  0.61226564  0.31448167  0.46714801    -0.77000
C119        C  0.78816248  0.43226722  0.46700315     0.85200
C120        C  0.69603905  0.43457158  0.54102540     0.85500
O121        O  0.69294410  0.43794182  0.51875054    -0.79400
N122        N  0.67545909  0.67238207  0.64558374    -0.01900
C123        C  0.69165807  0.68670978  0.66746546     0.00700
C124        C  0.65760791  0.68662039  0.68225515    -0.22200
C125        C  0.61961675  0.67309965  0.66916295    -0.22400
C126        C  0.63134978  0.66515913  0.64677958     0.00600
H127        H  0.66084416  0.69994297  0.69988729     0.14400
H128        H  0.58785716  0.67367238  0.67466254     0.14400
O129        O  0.23762679  0.62735047  0.50609940    -0.76900
C130        C  0.22982339  0.73010000  0.45743292     0.84100
O131        O  0.37328643  0.67151180  0.46417641    -0.78000
O132        O  0.37166218  0.81844236  0.46814299    -0.79500
O133        O  0.30910471  0.77112126  0.54631792    -0.79300
O134        O  0.25924751  0.65911044  0.54096020    -0.77900
Zn135      Zn  0.27321865  0.67121295  0.48138902     1.55700
O136        O  0.30596465  0.81206470  0.51523098    -0.79300
Cd137      Cd  0.31408630  0.71469268  0.53179193     1.59700
Cd138      Cd  0.37872760  0.72192696  0.48706853     1.59600
O139        O  0.36952424  0.70573500  0.54648831    -0.79300
O140        O  0.31914311  0.72081272  0.49648128    -1.89800
Cd141      Cd  0.31448614  0.77780178  0.48604955     1.59900
O142        O  0.41402163  0.71340006  0.51556262    -0.79300
O143        O  0.25974038  0.76568641  0.46438928    -0.77900
C144        C  0.34019037  0.64103736  0.45528422     0.84600
C145        C  0.23473381  0.62690216  0.52853767     0.84200
O146        O  0.23102276  0.69259091  0.46279993    -0.76900
C147        C  0.30586399  0.80574529  0.53744644     0.85100
O148        O  0.30052763  0.63784508  0.45987317    -0.77000
C149        C  0.40601543  0.70664921  0.53750278     0.85200
C150        C  0.40885247  0.81449152  0.46429781     0.85500
O151        O  0.41583952  0.78034077  0.47082523    -0.79400
N152        N  0.32041514  0.05813140  0.64108065    -0.01900
C153        C  0.29891197  0.06100685  0.66121562     0.00700
C154        C  0.32070425  0.10089606  0.67208310    -0.22200
C155        C  0.35679321  0.12335632  0.65826209    -0.22400
C156        C  0.35598224  0.09640115  0.63948952     0.00600
H157        H  0.31039805  0.11310376  0.68785278     0.14400
H158        H  0.38083713  0.15599323  0.66141692     0.14400
N159        N  0.05512441  0.32024607  0.62790616    -0.01900
C160        C  0.06128646  0.29032221  0.64269793     0.00700
C161        C  0.10538001  0.30310082  0.64882282    -0.22200
C162        C  0.12731662  0.34213169  0.63735683    -0.22400
C163        C  0.09590517  0.35203801  0.62453479     0.00600
H164        H  0.11985517  0.28619477  0.66070749     0.14400
H165        H  0.16248844  0.36125833  0.63827473     0.14400
N166        N  0.97352616  0.71275962  0.35493700    -0.01900
C167        C  0.96933995  0.73310253  0.33468348     0.00700
C168        C  0.93034130  0.70868218  0.32338266    -0.22200
C169        C  0.90966348  0.67232217  0.33714626    -0.22400
C170        C  0.93668107  0.67558891  0.35641762     0.00600
H171        H  0.91723723  0.71745827  0.30743499     0.14400
H172        H  0.87782340  0.64673117  0.33374024     0.14400
N173        N  0.37343653  0.37057591  0.35083149    -0.01900
C174        C  0.35952454  0.34954169  0.32990212     0.00700
C175        C  0.35389097  0.37843282  0.31345649    -0.22200
C176        C  0.36284964  0.41774020  0.32449817    -0.22400
C177        C  0.37399278  0.41195154  0.34735486     0.00600
H178        H  0.33933067  0.37030651  0.29612149     0.14400
H179        H  0.35828421  0.44634029  0.31717487     0.14400
N180        N  0.69258142  0.00407484  0.35498919    -0.01900
C181        C  0.71623085  0.99071259  0.33884815     0.00700
C182        C  0.68820351  0.95274038  0.32799712    -0.22200
C183        C  0.64710398  0.94180735  0.33811067    -0.22400
C184        C  0.65053766  0.97355386  0.35471195     0.00600
H185        H  0.69668948  0.93424622  0.31431307     0.14400
H186        H  0.61837956  0.91262990  0.33446569     0.14400
C187        C  0.06160579  0.07362960  0.27554832     0.47000
H188        H  0.06259684  0.07172198  0.29508103    -0.02000
C189        C  0.06066715  0.07810499  0.22973850     0.47100
H190        H  0.06045414  0.08040416  0.21023669    -0.02000
C191        C  0.02028765  0.08094564  0.26595069    -0.15700
C192        C  0.10231884  0.11026438  0.26506504    -0.15400
C193        C  0.06034337  0.03138303  0.26331346    -0.15800
C194        C  0.01950556  0.08265034  0.24156091    -0.15800
C195        C  0.10177180  0.11302824  0.24087739    -0.15400
C196        C  0.06085855  0.03387997  0.23901529    -0.15700
C197        C  0.83087164  0.99732099  0.32005815    -0.26600
C198        C  0.85493944  0.04260542  0.31774164     0.07000
C199        C  0.83363803  0.07162021  0.32431801     0.26600
C200        C  0.78904402  0.05530747  0.33198596    -0.11100
C201        C  0.76507153  0.00982620  0.33380676    -0.25100
C202        C  0.78738374  0.98121311  0.32847615     0.37400
C203        C  0.90092406  0.05802714  0.30734875     0.07000
F204        F  0.85571610  0.11571645  0.32333648    -0.18900
H205        H  0.77308286  0.07832824  0.33574608     0.16800
F206        F  0.76708525  0.93708065  0.33118697    -0.22600
H207        H  0.84525223  0.97373587  0.31474678     0.18600
C208        C  0.92989995  0.03582466  0.31242481     0.26600
C209        C  0.96909505  0.04469006  0.29951289    -0.11100
C210        C  0.98157529  0.07688151  0.28169697    -0.25100
C211        C  0.95513519  0.10227215  0.27826094     0.37500
C212        C  0.91486738  0.09224978  0.29054586    -0.26800
F213        F  0.92007871  0.00475852  0.32963417    -0.18900
H214        H  0.98878985  0.02486948  0.30294283     0.16800
F215        F  0.96746065  0.13589310  0.26248429    -0.22600
H216        H  0.89380370  0.11020232  0.28610228     0.18600
C217        C  0.21978557  0.15884247  0.28883503    -0.26600
C218        C  0.21800384  0.19362762  0.30279260     0.07000
C219        C  0.17671115  0.19853673  0.30542533     0.26600
C220        C  0.13863761  0.16953289  0.29434116    -0.11100
C221        C  0.14111774  0.13615494  0.27971913    -0.25100
C222        C  0.18185570  0.13051353  0.27733847     0.37400
C223        C  0.25965005  0.22694293  0.31259770     0.07000
F224        F  0.17359503  0.23323193  0.31725764    -0.18900
H225        H  0.10767681  0.17479146  0.29600057     0.16800
F226        F  0.18514811  0.09831869  0.26332945    -0.22600
H227        H  0.25088203  0.15417069  0.28639858     0.18600
C228        C  0.26099490  0.24425918  0.33543049     0.26600
C229        C  0.29675612  0.28183388  0.34235174    -0.11100
C230        C  0.33273307  0.30197901  0.32707704    -0.25100
C231        C  0.33372057  0.28158882  0.30536187     0.37500
C232        C  0.29748143  0.24472782  0.29817790    -0.26800
F233        F  0.22667919  0.22630043  0.35065186    -0.18900
H234        H  0.29404588  0.29752364  0.35871178     0.16800
F235        F  0.36773718  0.30017141  0.29001653    -0.22600
H236        H  0.29778228  0.23210412  0.28058393     0.18600
C237        C  0.00532770  0.91310529  0.28295770    -0.26600
C238        C  0.03544242  0.90909573  0.29969103     0.07000
C239        C  0.07253540  0.94642224  0.30566198     0.26600
C240        C  0.08011377  0.98665342  0.29422427    -0.11100
C241        C  0.05087409  0.98990801  0.27674414    -0.25100
C242        C  0.01260597  0.95313920  0.27177312     0.37400
C243        C  0.02779432  0.86521353  0.30993377     0.07000
F244        F  0.10220037  0.94351749  0.32177970    -0.18900
H245        H  0.10945537  0.01489525  0.29844462     0.16800
F246        F  0.98239276  0.95590101  0.25594193    -0.22600
H247        H  0.97610092  0.88493253  0.27846401     0.18600
C248        C  0.02042335  0.85687754  0.33423496     0.26600
C249        C  0.00515132  0.81354991  0.34276990    -0.11100
C250        C  0.99692204  0.77824360  0.32715096    -0.25100
C251        C  0.00736524  0.78698653  0.30315658     0.37500
C252        C  0.02265302  0.83005110  0.29468369    -0.26800
F253        F  0.02431754  0.89010522  0.34935708    -0.18900
H254        H  0.99651965  0.80743384  0.36124508     0.16800
F255        F  0.00038155  0.75359078  0.28768121    -0.22600
H256        H  0.02850142  0.83587542  0.27593855     0.18600
C257        C  0.10771793  0.42967305  0.57244964    -0.26600
C258        C  0.13813887  0.46930966  0.58144961     0.07000
C259        C  0.15247302  0.47004680  0.60490070     0.26600
C260        C  0.13694490  0.43216879  0.61883729    -0.11100
C261        C  0.10715331  0.39241490  0.60981314    -0.25100
C262        C  0.09265906  0.39142451  0.58637522     0.37400
C263        C  0.15706453  0.50919091  0.56623882     0.07000
F264        F  0.18336313  0.50683237  0.61404961    -0.18900
H265        H  0.14914524  0.43367570  0.63670034     0.16800
F266        F  0.06620792  0.35317396  0.57643805    -0.22600
H267        H  0.09625979  0.42809467  0.55444094     0.18600
C268        C  0.17482011  0.50686614  0.54382520     0.26600
C269        C  0.19770247  0.54530077  0.53107009    -0.11100
C270        C  0.20412785  0.58682489  0.54052169    -0.25100
C271        C  0.18445457  0.58909488  0.56234397     0.37500
C272        C  0.16085282  0.55063530  0.57490934    -0.26800
F273        F  0.17284157  0.46777227  0.53492064    -0.18900
H274        H  0.21269333  0.54264539  0.51434920     0.16800
F275        F  0.18851353  0.62848502  0.57168354    -0.22600
H276        H  0.14655754  0.55332224  0.59183027     0.18600
C277        C  0.39879265  0.58028425  0.41925674    -0.26600
C278        C  0.36318001  0.54286193  0.41203744     0.07000
C279        C  0.31988613  0.53831808  0.41873039     0.26600
C280        C  0.31259935  0.57055198  0.43242771    -0.11100
C281        C  0.34824690  0.60800808  0.43981428    -0.25100
C282        C  0.39162140  0.61251828  0.43295828     0.37400
C283        C  0.37117686  0.50939289  0.39697697     0.07000
F284        F  0.28445325  0.50318857  0.41155598    -0.18900
H285        H  0.27891342  0.56597558  0.43735838     0.16800
F286        F  0.42734934  0.64801729  0.43942369    -0.22600
H287        H  0.43241354  0.58443218  0.41439907     0.18600
C288        C  0.39598190  0.52179321  0.37600451     0.26600
C289        C  0.39949951  0.48981869  0.36071968    -0.11100
C290        C  0.37865497  0.44493614  0.36603819    -0.25100
C291        C  0.35594276  0.43254555  0.38760742     0.37500
C292        C  0.35227726  0.46456374  0.40289561    -0.26800
F293        F  0.41437725  0.56467027  0.36950545    -0.18900
H294        H  0.41695533  0.50010570  0.34414024     0.16800
F295        F  0.33420138  0.38954613  0.39304288    -0.22600
H296        H  0.33345691  0.45427036  0.41908096     0.18600
C297        C  0.32918523  0.88687364  0.58767960    -0.26600
C298        C  0.30059557  0.90921239  0.58258799     0.07000
C299        C  0.27294752  0.89651757  0.56269054     0.26600
C300        C  0.27454633  0.86264160  0.54811811    -0.11100
C301        C  0.30303201  0.84029799  0.55335950    -0.25100
C302        C  0.33022121  0.85259098  0.57336348     0.37400
C303        C  0.30125751  0.94653955  0.59768869     0.07000
F304        F  0.24396163  0.91638394  0.55752602    -0.18900
H305        H  0.25324036  0.85357689  0.53280763     0.16800
F306        F  0.35934406  0.83284771  0.57845205    -0.22600
H307        H  0.35157322  0.89665482  0.60253008     0.18600
C308        C  0.30027870  0.94278369  0.62243791     0.26600
C309        C  0.30523503  0.97924427  0.63652056    -0.11100
C310        C  0.31104277  0.02006029  0.62628990    -0.25100
C311        C  0.30979638  0.02338483  0.60160631     0.37500
C312        C  0.30527519  0.98702566  0.58746854    -0.26800
F313        F  0.29475603  0.90387788  0.63302365    -0.18900
H314        H  0.30580493  0.97599262  0.65550498     0.16800
F315        F  0.31273942  0.06167271  0.59117163    -0.22600
H316        H  0.30609749  0.99086055  0.56848631     0.18600
C317        C  0.52148364  0.88001765  0.43755694    -0.26600
C318        C  0.51233856  0.91113686  0.42362029     0.07000
C319        C  0.46946400  0.91253206  0.42451945     0.26600
C320        C  0.43622852  0.88221332  0.43845927    -0.11100
C321        C  0.44500202  0.84970178  0.45155110    -0.25100
C322        C  0.48854197  0.84982013  0.45137070     0.37400
C323        C  0.54663115  0.93804747  0.40653314     0.07000
F324        F  0.45955546  0.94275596  0.41169667    -0.18900
H325        H  0.40326945  0.88329879  0.43838235     0.16800
F326        F  0.49940906  0.82014180  0.46415816    -0.22600
H327        H  0.55395245  0.87775777  0.43699924     0.18600
C328        C  0.59120986  0.95866184  0.41342435     0.26600
C329        C  0.62493464  0.97378180  0.39644790    -0.11100
C330        C  0.61488529  0.96903738  0.37229997    -0.25100
C331        C  0.57001258  0.95236840  0.36548663     0.37500
C332        C  0.53631038  0.93701524  0.38245411    -0.26800
F333        F  0.60238886  0.96171784  0.43657588    -0.18900
H334        H  0.65904406  0.98601074  0.40226934     0.16800
F335        F  0.55882051  0.94848069  0.34233252    -0.22600
H336        H  0.50235603  0.92132144  0.37662446     0.18600
C337        C  0.08945321  0.73704499  0.37598366    -0.26600
C338        C  0.08365708  0.73568672  0.40052601     0.07000
C339        C  0.04199950  0.73119208  0.40986896     0.26600
C340        C  0.00633158  0.72620244  0.39479431    -0.11100
C341        C  0.01154405  0.72501511  0.37024969    -0.25100
C342        C  0.05368842  0.73145644  0.36094371     0.37400
C343        C  0.12028984  0.73546345  0.41603371     0.07000
F344        F  0.03567492  0.73074396  0.43353999    -0.18900
H345        H  0.97417430  0.72166953  0.40224337     0.16800
F346        F  0.05949370  0.72924003  0.33735935    -0.22600
H347        H  0.12124010  0.74021890  0.36848647     0.18600
C348        C  0.11587800  0.69817472  0.42966660     0.26600
C349        C  0.15167045  0.69655717  0.44286920    -0.11100
C350        C  0.19237420  0.73234463  0.44306504    -0.25100
C351        C  0.19644329  0.77002894  0.42965074     0.37500
C352        C  0.16083234  0.77122346  0.41607576    -0.26800
F353        F  0.07731675  0.66274317  0.42961356    -0.18900
H354        H  0.14741925  0.66726746  0.45308248     0.16800
F355        F  0.23512995  0.80528568  0.42910805    -0.22600
H356        H  0.16489971  0.80006636  0.40549771     0.18600
C357        C  0.57948248  0.70872624  0.59850961    -0.26600
C358        C  0.53870116  0.67387584  0.59530283     0.07000
C359        C  0.53141374  0.63368730  0.60696248     0.26600
C360        C  0.56306653  0.62976605  0.62270807    -0.11100
C361        C  0.60288139  0.66530223  0.62651441    -0.25100
C362        C  0.61120103  0.70457654  0.61397030     0.37400
C363        C  0.50393922  0.68075669  0.58042597     0.07000
F364        F  0.49360573  0.59840524  0.60333560    -0.18900
H365        H  0.55597171  0.59945356  0.63248276     0.16800
F366        F  0.64897637  0.73983809  0.61779680    -0.22600
H367        H  0.58603019  0.74000807  0.58982460     0.18600
C368        C  0.46002662  0.66949261  0.58858167     0.26600
C369        C  0.42848203  0.67845645  0.57477122    -0.11100
C370        C  0.43998993  0.69893502  0.55260358    -0.25100
C371        C  0.48413977  0.71074564  0.54467594     0.37500
C372        C  0.51547994  0.70163669  0.55841484    -0.26800
F373        F  0.44788541  0.65120032  0.61023445    -0.18900
H374        H  0.39492619  0.66915173  0.58141300     0.16800
F375        F  0.49747572  0.73185767  0.52377776    -0.22600
H376        H  0.54907918  0.71106568  0.55180743     0.18600
C377        C  0.89939874  0.31717886  0.55651491    -0.26600
C378        C  0.89868536  0.32055555  0.58112813     0.07000
C379        C  0.86246691  0.32685054  0.59195334     0.26600
C380        C  0.82758848  0.32961066  0.57826975    -0.11100
C381        C  0.82836465  0.32662247  0.55350721    -0.25100
C382        C  0.86490833  0.32028174  0.54280271     0.37400
C383        C  0.93651854  0.31848246  0.59509730     0.07000
F384        F  0.86054702  0.32971663  0.61576600    -0.18900
H385        H  0.80013251  0.33447947  0.58709340     0.16800
F386        F  0.86772670  0.31723427  0.51904250    -0.22600
H387        H  0.92724367  0.31279433  0.54782081     0.18600
C388        C  0.95036649  0.28270714  0.59275133     0.26600
C389        C  0.98845631  0.28279067  0.60429373    -0.11100
C390        C  0.01364691  0.31866733  0.61811879    -0.25100
C391        C  0.99917869  0.35386079  0.62106784     0.37500
C392        C  0.96081633  0.35365375  0.60968798    -0.26800
F393        F  0.92729837  0.24791727  0.57906304    -0.18900
H394        H  0.99935151  0.25560856  0.60172197     0.16800
F395        F  0.02250594  0.38858034  0.63471870    -0.22600
H396        H  0.95083982  0.38160110  0.61165042     0.18600
C397        C  0.75343579  0.18759707  0.41855986    -0.26600
C398        C  0.71393448  0.15288107  0.41289913     0.07000
C399        C  0.67409828  0.15151088  0.42338014     0.26600
C400        C  0.67371551  0.18470679  0.43872415    -0.11100
C401        C  0.71300434  0.22013383  0.44414437    -0.25100
C402        C  0.75312324  0.22104047  0.43391815     0.37400
C403        C  0.71383180  0.11827568  0.39594105     0.07000
F404        F  0.63546716  0.11758955  0.41904186    -0.18900
H405        H  0.64236244  0.18254690  0.44637772     0.16800
F406        F  0.79204364  0.25439119  0.43844308    -0.22600
H407        H  0.78448111  0.18922582  0.41071515     0.18600
C408        C  0.68523225  0.10857623  0.37643062     0.26600
C409        C  0.68078677  0.07254576  0.36219985    -0.11100
C410        C  0.70483568  0.04556482  0.36694125    -0.25100
C411        C  0.73557596  0.05664905  0.38546691     0.37500
C412        C  0.74010717  0.09292814  0.39985209    -0.26800
F413        F  0.66068134  0.13332253  0.37149263    -0.18900
H414        H  0.65704561  0.06438661  0.34792378     0.16800
F415        F  0.75870157  0.03067231  0.39059549    -0.22600
H416        H  0.76245303  0.09992162  0.41473835     0.18600
C417        C  0.54405275  0.18922954  0.58644090    -0.26600
C418        C  0.50245556  0.17073129  0.57554822     0.07000
C419        C  0.49876248  0.17890273  0.55145374     0.26600
C420        C  0.53563367  0.20632154  0.53879438    -0.11100
C421        C  0.57682597  0.22664426  0.54993004    -0.25100
C422        C  0.58092610  0.21701990  0.57382942     0.37400
C423        C  0.46243455  0.14692034  0.58990511     0.07000
F424        F  0.45924129  0.16101722  0.54025912    -0.18900
H425        H  0.53146367  0.21290938  0.52040736     0.16800
F426        F  0.62035270  0.23480008  0.58510902    -0.22600
H427        H  0.54759784  0.18360297  0.60502435     0.18600
C428        C  0.46076994  0.11241708  0.60524786     0.26600
C429        C  0.42437828  0.09367257  0.62039833    -0.11100
C430        C  0.38966969  0.10950764  0.62060278    -0.25100
C431        C  0.39082935  0.14314285  0.60493274     0.37500
C432        C  0.42666647  0.16133941  0.58958457    -0.26800
F433        F  0.49468820  0.09756407  0.60591894    -0.18900
H434        H  0.42419159  0.06822579  0.63269729     0.16800
F435        F  0.35785584  0.15935211  0.60506924    -0.22600
H436        H  0.42746795  0.18824163  0.57819275     0.18600
C437        C  0.42746470  0.32954822  0.39978304    -0.26600
C438        C  0.47215633  0.35770374  0.39725773     0.07000
C439        C  0.48373401  0.38748741  0.37823900     0.26600
C440        C  0.45123465  0.39010144  0.36279049    -0.11100
C441        C  0.40629469  0.36326425  0.36577682    -0.25100
C442        C  0.39474428  0.33237178  0.38428516     0.37400
C443        C  0.50659906  0.35597957  0.41430613     0.07000
F444        F  0.52663677  0.41385460  0.37440063    -0.18900
H445        H  0.46100522  0.41382999  0.34852074     0.16800
F446        F  0.35192260  0.30608267  0.38799237    -0.22600
H447        H  0.41769787  0.30612977  0.41419621     0.18600
C448        C  0.53590402  0.39439338  0.42507137     0.26600
C449        C  0.56936882  0.39266113  0.44022208    -0.11100
C450        C  0.57436250  0.35261166  0.44524505    -0.25100
C451        C  0.54428485  0.31399878  0.43482944     0.37500
C452        C  0.51090510  0.31583473  0.41963068    -0.26800
F453        F  0.53170338  0.43363361  0.42130256    -0.18900
H454        H  0.59135179  0.42287134  0.44810516     0.16800
F455        F  0.54729041  0.27434706  0.43898148    -0.22600
H456        H  0.48882497  0.28580906  0.41160942     0.18600
C457        C  0.87559832  0.50053391  0.42368443    -0.26600
C458        C  0.87697313  0.54289039  0.42906946     0.07000
C459        C  0.85408410  0.54877071  0.44904788     0.26600
C460        C  0.82673898  0.51253260  0.46185725    -0.11100
C461        C  0.82245274  0.46986437  0.45535571    -0.25100
C462        C  0.84876696  0.46415091  0.43687552     0.37400
C463        C  0.89520305  0.57915053  0.41179727     0.07000
F464        F  0.85632130  0.58947534  0.45539382    -0.18900
H465        H  0.80770470  0.51773589  0.47647975     0.16800
F466        F  0.84580906  0.42332668  0.43036721    -0.22600
H467        H  0.89283156  0.49525622  0.40830870     0.18600
C468        C  0.93795275  0.59076497  0.40202842     0.26600
C469        C  0.95225910  0.62312489  0.38436862    -0.11100
C470        C  0.92403340  0.64401550  0.37629624    -0.25100
C471        C  0.88166000  0.63263904  0.38633365     0.37500
C472        C  0.86752347  0.60061104  0.40382348    -0.26800
F473        F  0.96561997  0.57081521  0.40948093    -0.18900
H474        H  0.98486678  0.63112878  0.37663056     0.16800
F475        F  0.85363379  0.65235233  0.37908332    -0.22600
H476        H  0.83416880  0.59166182  0.41074035     0.18600
C477        C  0.68603046  0.50367408  0.59325554    -0.26600
C478        C  0.70364326  0.54663239  0.58391866     0.07000
C479        C  0.71931632  0.55210675  0.56048347     0.26600
C480        C  0.71598365  0.51553294  0.54670188    -0.11100
C481        C  0.69813999  0.47263654  0.55601772    -0.25100
C482        C  0.68360238  0.46716432  0.57961514     0.37400
C483        C  0.70443599  0.58482242  0.59871290     0.07000
F484        F  0.73915329  0.59282545  0.55103589    -0.18900
H485        H  0.72838232  0.52091731  0.52876253     0.16800
F486        F  0.66590586  0.42646962  0.58935845    -0.22600
H487        H  0.67336914  0.49820681  0.61113704     0.18600
C488        C  0.68951049  0.61729823  0.58991361     0.26600
C489        C  0.68489570  0.64931210  0.60493608    -0.11100
C490        C  0.69340739  0.64906040  0.62923132    -0.25100
C491        C  0.71124798  0.61845522  0.63767888     0.37500
C492        C  0.71682534  0.58704646  0.62256552    -0.26800
F493        F  0.67574907  0.61611982  0.56726993    -0.18900
H494        H  0.67207161  0.67278339  0.59769653     0.16800
F495        F  0.71979884  0.61628322  0.66095014    -0.22600
H496        H  0.72905362  0.56302882  0.62982899     0.18600
C497        C  0.82235670  0.05550858  0.19522698    -0.26600
C498        C  0.86174448  0.05484081  0.18513439     0.07000
C499        C  0.86084395  0.04051798  0.16172957     0.26600
C500        C  0.82064780  0.02407288  0.14939170    -0.11100
C501        C  0.78088299  0.02257731  0.15992404    -0.25100
C502        C  0.78228634  0.03965301  0.18273571     0.37400
C503        C  0.90196975  0.06356100  0.19993042     0.07000
F504        F  0.89804782  0.03869028  0.15157575    -0.18900
H505        H  0.82006245  0.00961408  0.13219456     0.16800
F506        F  0.74426129  0.03744542  0.19367606    -0.22600
H507        H  0.82227091  0.06626764  0.21325581     0.18600
C508        C  0.90041838  0.03647291  0.21946215     0.26600
C509        C  0.93856961  0.04266181  0.23271080    -0.11100
C510        C  0.97889135  0.07694537  0.22736052    -0.25100
C511        C  0.98062959  0.10383978  0.20768040     0.37500
C512        C  0.94251240  0.09704241  0.19404773    -0.26800
F513        F  0.86225145  0.00289278  0.22521966    -0.18900
H514        H  0.93665180  0.02020039  0.24708944     0.16800
F515        F  0.01908693  0.13685975  0.20175504    -0.22600
H516        H  0.94455617  0.11798580  0.17892564     0.18600
C517        C  0.06667756  0.85537202  0.18195588    -0.26600
C518        C  0.03541439  0.87500009  0.18673433     0.07000
C519        C  0.99017186  0.84992807  0.18321906     0.26600
C520        C  0.97670647  0.80638061  0.17605281    -0.11100
C521        C  0.00746444  0.78598813  0.17269172    -0.25100
C522        C  0.05285071  0.81104417  0.17519061     0.37400
C523        C  0.04877976  0.91975783  0.19730105     0.07000
F524        F  0.95833888  0.86621405  0.18843657    -0.18900
H525        H  0.94151657  0.78765753  0.17431160     0.16800
F526        F  0.08345076  0.79213315  0.17272921    -0.22600
H527        H  0.10174220  0.87391318  0.18421207     0.18600
C528        C  0.07831727  0.93212628  0.21645473     0.26600
C529        C  0.08443271  0.97084280  0.22881008    -0.11100
C530        C  0.05982637  0.99706434  0.22314941    -0.25100
C531        C  0.03244265  0.98617831  0.20312996     0.37500
C532        C  0.02782909  0.94850905  0.19014234    -0.26800
F533        F  0.09890995  0.90542469  0.22439280    -0.18900
H534        H  0.10694225  0.97919364  0.24362892     0.16800
F535        F  0.00753626  0.00990349  0.19696604    -0.22600
H536        H  0.00588932  0.94062587  0.17507734     0.18600
C537        C  0.24731924  0.25305568  0.16839751    -0.26600
C538        C  0.25286523  0.23578385  0.19030227     0.07000
C539        C  0.29340895  0.25497522  0.20218908     0.26600
C540        C  0.32596281  0.29342508  0.19341335    -0.11100
C541        C  0.31860852  0.31326847  0.17268780    -0.25100
C542        C  0.27974978  0.29169993  0.15969292     0.37400
C543        C  0.21382776  0.20387873  0.20263658     0.07000
F544        F  0.29982885  0.23871346  0.22332501    -0.18900
H545        H  0.35499743  0.31010601  0.20402633     0.16800
F546        F  0.27015988  0.31135371  0.14048254    -0.22600
H547        H  0.21605565  0.23908688  0.15917605     0.18600
C548        C  0.19541558  0.21789113  0.22197290     0.26600
C549        C  0.15794755  0.18883313  0.23349244    -0.11100
C550        C  0.13882769  0.14464812  0.22661890    -0.25100
C551        C  0.15664995  0.13081947  0.20684047     0.37500
C552        C  0.19361535  0.16041682  0.19483728    -0.26800
F553        F  0.21344249  0.26005178  0.22953402    -0.18900
H554        H  0.14404343  0.20091736  0.24800503     0.16800
F555        F  0.13948973  0.08844531  0.19959762    -0.22600
H556        H  0.20703891  0.14922589  0.17976952     0.18600
C557        C  0.15282244  0.51662913  0.95151778    -0.26600
C558        C  0.14800585  0.51568502  0.92690608     0.07000
C559        C  0.16908032  0.55483963  0.91410689     0.26600
C560        C  0.19592664  0.59332594  0.92563079    -0.11100
C561        C  0.20227996  0.59390234  0.95020472    -0.25100
C562        C  0.17940506  0.55505559  0.96308338     0.37400
C563        C  0.12407979  0.47325028  0.91457998     0.07000
F564        F  0.16575299  0.55534719  0.89027103    -0.18900
H565        H  0.21278813  0.62243108  0.91514474     0.16800
F566        F  0.18381551  0.55342748  0.98681768    -0.22600
H567        H  0.13658734  0.48712189  0.96182683     0.18600
C568        C  0.13570863  0.43641976  0.91880148     0.26600
C569        C  0.11712156  0.39827644  0.90533265    -0.11100
C570        C  0.08595145  0.39556457  0.88773104    -0.25100
C571        C  0.07259745  0.43135385  0.88417448     0.37500
C572        C  0.09159916  0.46988551  0.89746453    -0.26800
F573        F  0.16730292  0.43828872  0.93486256    -0.18900
H574        H  0.12845266  0.37132980  0.90797812     0.16800
F575        F  0.04326727  0.43000372  0.86688818    -0.22600
H576        H  0.08180297  0.49757000  0.89396721     0.18600
C577        C  0.38667625  0.53178231  0.11971566    -0.26600
C578        C  0.36870414  0.51715590  0.09742351     0.07000
C579        C  0.35430563  0.47211144  0.09223001     0.26600
C580        C  0.35488713  0.44203782  0.10966132    -0.11100
C581        C  0.36970801  0.45640114  0.13249405    -0.25100
C582        C  0.38705142  0.50171103  0.13717128     0.37400
C583        C  0.36239147  0.54878099  0.08043319     0.07000
F584        F  0.33835601  0.45710007  0.07054449    -0.18900
H585        H  0.34107401  0.40730461  0.10570444     0.16800
F586        F  0.40274400  0.51677721  0.15888882    -0.22600
H587        H  0.39835141  0.56639754  0.12399200     0.18600
C588        C  0.32016677  0.54198595  0.07120617     0.26600
C589        C  0.31388637  0.57332872  0.05635228    -0.11100
C590        C  0.34951593  0.61204378  0.05036542    -0.25100
C591        C  0.39186247  0.61869025  0.05961211     0.37500
C592        C  0.39800379  0.58740151  0.07456825    -0.26800
F593        F  0.28461077  0.50576290  0.07722328    -0.18900
H594        H  0.28098231  0.56724126  0.04956179     0.16800
F595        F  0.42730963  0.65570571  0.05461111    -0.22600
H596        H  0.43067825  0.59337455  0.08166906     0.18600
C597        C  0.30293809  0.92374512  0.93737460    -0.26600
C598        C  0.30582877  0.92227808  0.91273434     0.07000
C599        C  0.30976839  0.88499875  0.90225227     0.26600
C600        C  0.31097341  0.85009644  0.91627461    -0.11100
C601        C  0.30866125  0.85175485  0.94103424    -0.25100
C602        C  0.30434134  0.88911428  0.95140591     0.37400
C603        C  0.30672159  0.96073416  0.89842762     0.07000
F604        F  0.31204418  0.88213006  0.87845358    -0.18900
H605        H  0.31424416  0.82194164  0.90770255     0.16800
F606        F  0.30162159  0.89256577  0.97514585    -0.22600
H607        H  0.30051732  0.95235652  0.94587143     0.18600
C608        C  0.27479518  0.97993091  0.90191040     0.26600
C609        C  0.27866362  0.01884663  0.89017511    -0.11100
C610        C  0.31450087  0.03941050  0.87496400    -0.25100
C611        C  0.34541208  0.01947231  0.87073655     0.37500
C612        C  0.34150754  0.98044584  0.88236344    -0.26800
F613        F  0.24010306  0.96125305  0.91682807    -0.18900
H614        H  0.25448069  0.03378258  0.89348889     0.16800
F615        F  0.37951223  0.03803954  0.85547148    -0.22600
H616        H  0.36654659  0.96642471  0.87943216     0.18600
C617        C  0.13069016  0.69725758  0.07287461    -0.26600
C618        C  0.13157514  0.73697381  0.08250921     0.07000
C619        C  0.16510830  0.77633405  0.07530037     0.26600
C620        C  0.19806582  0.77555599  0.05939309    -0.11100
C621        C  0.19813284  0.73553722  0.05031638    -0.25100
C622        C  0.16323801  0.69636636  0.05691334     0.37400
C623        C  0.09937089  0.73597162  0.10139189     0.07000
F624        F  0.16724778  0.81526002  0.08449943    -0.18900
H625        H  0.22417308  0.80627519  0.05464656     0.16800
F626        F  0.16067095  0.65688028  0.04830828    -0.22600
H627        H  0.10491115  0.66658323  0.07805929     0.18600
C628        C  0.07005214  0.75864449  0.09932883     0.26600
C629        C  0.03762740  0.75377884  0.11674745    -0.11100
C630        C  0.03386977  0.72590100  0.13614580    -0.25100
C631        C  0.06419272  0.70472203  0.13855920     0.37500
C632        C  0.09654963  0.70974997  0.12139467    -0.26800
F633        F  0.07107007  0.78326566  0.07989205    -0.18900
H634        H  0.01400128  0.76977890  0.11453008     0.16800
F635        F  0.06140888  0.67796777  0.15730425    -0.22600
H636        H  0.11896873  0.69229795  0.12345111     0.18600
C637        C  0.47974145  0.89583689  0.07534810    -0.26600
C638        C  0.52407118  0.90198329  0.07000654     0.07000
C639        C  0.53254317  0.88146334  0.04977412     0.26600
C640        C  0.49751099  0.85448311  0.03580900    -0.11100
C641        C  0.45311111  0.84746746  0.04142855    -0.25100
C642        C  0.44465876  0.86921343  0.06118356     0.37400
C643        C  0.56052950  0.92499180  0.08696995     0.07000
F644        F  0.57451600  0.88512646  0.04429167    -0.18900
H645        H  0.50514440  0.83814694  0.02079022     0.16800
F646        F  0.40240255  0.86271012  0.06766439    -0.22600
H647        H  0.47218314  0.91084568  0.09092100     0.18600
C648        C  0.60119311  0.95706998  0.07958501     0.26600
C649        C  0.63728996  0.97266008  0.09521320    -0.11100
C650        C  0.63344310  0.95674740  0.11849911    -0.25100
C651        C  0.59173852  0.92735319  0.12626944     0.37500
C652        C  0.55591226  0.91179800  0.11071494    -0.26800
F653        F  0.60640337  0.97243657  0.05709571    -0.18900
H654        H  0.66888235  0.99511705  0.08865706     0.16800
F655        F  0.58605370  0.91209268  0.14879155    -0.22600
H656        H  0.52504713  0.88747792  0.11699177     0.18600
C657        C  0.49950819  0.67669572  0.93004100    -0.26600
C658        C  0.49597306  0.67888207  0.90556828     0.07000
C659        C  0.46154122  0.68973811  0.89582807     0.26600
C660        C  0.43139562  0.69902956  0.91060595    -0.11100
C661        C  0.43533036  0.69774566  0.93529414    -0.25100
C662        C  0.46954033  0.68575858  0.94481801     0.37400
C663        C  0.53035613  0.67269035  0.89057187     0.07000
F664        F  0.45781906  0.69239549  0.87209493    -0.18900
H665        H  0.40542646  0.70786578  0.90272843     0.16800
F666        F  0.47422781  0.68257323  0.96844702    -0.22600
H667        H  0.52596138  0.66834606  0.93773052     0.18600
C668        C  0.57135430  0.70726718  0.88767635     0.26600
C669        C  0.60447193  0.70151550  0.87388629    -0.11100
C670        C  0.59730471  0.66113914  0.86293877    -0.25100
C671        C  0.55635318  0.62642016  0.86587816     0.37500
C672        C  0.52311624  0.63212679  0.87979239    -0.26800
F673        F  0.57883296  0.74689365  0.89774006    -0.18900
H674        H  0.63538702  0.72901696  0.87113004     0.16800
F675        F  0.54838859  0.58746729  0.85495751    -0.22600
H676        H  0.49165921  0.60513288  0.88202416     0.18600
C677        C  0.47316712  0.17011625  0.88896639    -0.26600
C678        C  0.46757995  0.16088166  0.91324021     0.07000
C679        C  0.42584066  0.13202348  0.92141067     0.26600
C680        C  0.39005153  0.11551026  0.90580676    -0.11100
C681        C  0.39536794  0.12716904  0.88184160    -0.25100
C682        C  0.43768394  0.15322208  0.87343147     0.37400
C683        C  0.50408434  0.18499347  0.92979681     0.07000
F684        F  0.41921285  0.12089293  0.94456419    -0.18900
H685        H  0.35766489  0.09578230  0.91272895     0.16800
F686        F  0.44423824  0.16412062  0.85024002    -0.22600
H687        H  0.50447578  0.19254634  0.88206625     0.18600
C688        C  0.54875159  0.19266927  0.92425382     0.26600
C689        C  0.58303372  0.22094853  0.93807480    -0.11100
C690        C  0.57357479  0.24094859  0.95811391    -0.25100
C691        C  0.52910559  0.23171376  0.96438820     0.37500
C692        C  0.49481496  0.20450274  0.95018986    -0.26800
F693        F  0.55936751  0.17302110  0.90540415    -0.18900
H694        H  0.61711086  0.22718686  0.93314771     0.16800
F695        F  0.51883127  0.25107300  0.98346863    -0.22600
H696        H  0.46101541  0.20024959  0.95466335     0.18600
C697        C  0.52952604  0.40548078  0.08207068    -0.26600
C698        C  0.50049380  0.36662086  0.09264027     0.07000
C699        C  0.50673670  0.32713270  0.08813245     0.26600
C700        C  0.54136779  0.32669000  0.07340034    -0.11100
C701        C  0.57060564  0.36557703  0.06273836    -0.25100
C702        C  0.56409965  0.40512410  0.06727357     0.37400
C703        C  0.46430475  0.36785849  0.10852955     0.07000
F704        F  0.48006452  0.28914005  0.09848673    -0.18900
H705        H  0.54540077  0.29571516  0.07047010     0.16800
F706        F  0.59075402  0.44350740  0.05728974    -0.22600
H707        H  0.52514836  0.43626257  0.08515350     0.18600
C708        C  0.47406506  0.39656452  0.12785238     0.26600
C709        C  0.43993984  0.39966152  0.14194711    -0.11100
C710        C  0.39531362  0.37449385  0.13711710    -0.25100
C711        C  0.38538254  0.34494505  0.11819515     0.37500
C712        C  0.41969317  0.34153358  0.10409068    -0.26800
F713        F  0.51667779  0.42175449  0.13306720    -0.18900
H714        H  0.44815512  0.42269068  0.15644097     0.16800
F715        F  0.34266903  0.32102964  0.11268812    -0.22600
H716        H  0.41136658  0.31939965  0.08920166     0.18600
C717        C  0.71498411  0.58809845  0.87973854    -0.26600
C718        C  0.69830749  0.58700516  0.90271831     0.07000
C719        C  0.67976542  0.61830704  0.90879657     0.26600
C720        C  0.67521750  0.64759722  0.89175437    -0.11100
C721        C  0.68845115  0.64612235  0.86821337    -0.25100
C722        C  0.70995422  0.61690879  0.86266426     0.37400
C723        C  0.69778140  0.55138035  0.91950003     0.07000
F724        F  0.66323924  0.61870839  0.93075516    -0.18900
H725        H  0.65954358  0.67017541  0.89684054     0.16800
F726        F  0.72304090  0.61355181  0.84026324    -0.22600
H727        H  0.73045671  0.56521621  0.87467355     0.18600
C728        C  0.68274142  0.50726267  0.91208984     0.26600
C729        C  0.68232001  0.47381308  0.92764902    -0.11100
C730        C  0.69610388  0.48309337  0.95114627    -0.25100
C731        C  0.71081116  0.52715941  0.95870567     0.37500
C732        C  0.71174598  0.56081166  0.94300249    -0.26800
F733        F  0.66713434  0.49613883  0.88991057    -0.18900
H734        H  0.67042018  0.44030570  0.92133433     0.16800
F735        F  0.72542148  0.53799121  0.98107389    -0.22600
H736        H  0.72396944  0.59441155  0.94916365     0.18600
C737        C  0.87582092  0.29666701  0.94816443    -0.26600
C738        C  0.88661670  0.31722530  0.92595995     0.07000
C739        C  0.86306209  0.34327440  0.91809010     0.26600
C740        C  0.83001551  0.34877745  0.93216397    -0.11100
C741        C  0.82030035  0.32943582  0.95462614    -0.25100
C742        C  0.84338632  0.30300380  0.96247572     0.37400
C743        C  0.92352810  0.31322677  0.91151619     0.07000
F744        F  0.87324772  0.36514027  0.89722027    -0.18900
H745        H  0.81293231  0.36946575  0.92576568     0.16800
F746        F  0.83410298  0.28264612  0.98379437    -0.22600
H747        H  0.89260744  0.27569134  0.95450723     0.18600
C748        C  0.96476915  0.31870027  0.92177319     0.26600
C749        C  0.00060665  0.31986190  0.90764599    -0.11100
C750        C  0.99653201  0.31631109  0.88303440    -0.25100
C751        C  0.95493148  0.30885513  0.87284041     0.37500
C752        C  0.91878539  0.30683288  0.88699135    -0.26800
F753        F  0.97138241  0.32559201  0.94527172    -0.18900
H754        H  0.03220234  0.32505428  0.91588715     0.16800
F755        F  0.94986338  0.30644055  0.84910083    -0.22600
H756        H  0.88728118  0.30162752  0.87862276     0.18600
C757        C  0.91679699  0.56220127  0.12455884    -0.26600
C758        C  0.90990818  0.57459668  0.10161858     0.07000
C759        C  0.92716458  0.61935629  0.09539239     0.26600
C760        C  0.94831066  0.65112746  0.11224662    -0.11100
C761        C  0.95281822  0.63893126  0.13556351    -0.25100
C762        C  0.93793610  0.59403878  0.14143765     0.37400
C763        C  0.88016897  0.54148282  0.08533914     0.07000
F764        F  0.92178360  0.63248221  0.07326754    -0.18900
H765        H  0.95830637  0.68538474  0.10738527     0.16800
F766        F  0.94195327  0.58105538  0.16378423    -0.22600
H767        H  0.90348684  0.52796065  0.12980675     0.18600
C768        C  0.88595020  0.50181280  0.08062242     0.26600
C769        C  0.85523713  0.46969651  0.06665304    -0.11100
C770        C  0.81800904  0.47638981  0.05729379    -0.25100
C771        C  0.81293484  0.51665272  0.06173376     0.37500
C772        C  0.84364504  0.54859245  0.07559685    -0.26800
F773        F  0.92130475  0.49417922  0.08947964    -0.18900
H774        H  0.86028962  0.43928470  0.06347971     0.16800
F775        F  0.77812468  0.52531993  0.05291185    -0.22600
H776        H  0.83817495  0.57864993  0.07926421     0.18600
C777        C  0.74795542  0.10589289  0.10075124    -0.26600
C778        C  0.71598558  0.12397202  0.10638858     0.07000
C779        C  0.68406860  0.10322734  0.12384737     0.26600
C780        C  0.68260247  0.06387801  0.13421607    -0.11100
C781        C  0.71345128  0.04510972  0.12781568    -0.25100
C782        C  0.74691325  0.06697493  0.11148825     0.37400
C783        C  0.71361764  0.16182350  0.09257920     0.07000
F784        F  0.65396950  0.12072678  0.13067162    -0.18900
H785        H  0.65694322  0.04750455  0.14699989     0.16800
F786        F  0.77672506  0.04910395  0.10478691    -0.22600
H787        H  0.77251487  0.12072707  0.08719284     0.18600
C788        C  0.75179362  0.19886113  0.08741520     0.26600
C789        C  0.74891803  0.23273301  0.07315850    -0.11100
C790        C  0.70800078  0.23058101  0.06374485    -0.25100
C791        C  0.66978225  0.19366940  0.06919978     0.37500
C792        C  0.67276421  0.15980580  0.08332514    -0.26800
F793        F  0.79183952  0.20259177  0.09630872    -0.18900
H794        H  0.77894757  0.26068122  0.06944506     0.16800
F795        F  0.62946779  0.18962491  0.06058929    -0.22600
H796        H  0.64300607  0.13127139  0.08655499     0.18600
C797        C  0.84133914  0.86499007  0.80381366    -0.26600
C798        C  0.84952275  0.82570021  0.80219981     0.07000
C799        C  0.88650866  0.82582600  0.78907983     0.26600
C800        C  0.91316115  0.86370571  0.77700172    -0.11100
C801        C  0.90378725  0.90218570  0.77798145    -0.25100
C802        C  0.86843692  0.90303312  0.79194903     0.37400
C803        C  0.81659206  0.78399666  0.81185556     0.07000
F804        F  0.89652303  0.78915002  0.78767175    -0.18900
H805        H  0.94075402  0.86286335  0.76647584     0.16800
F806        F  0.85878583  0.93995067  0.79308519    -0.22600
H807        H  0.81272013  0.86573732  0.81339984     0.18600
C808        C  0.79763313  0.78201174  0.83442148     0.26600
C809        C  0.76049285  0.74535618  0.84118823    -0.11100
C810        C  0.74153569  0.71033637  0.82552678    -0.25100
C811        C  0.76317364  0.71048378  0.80398682     0.37500
C812        C  0.80012317  0.74698716  0.79722553    -0.26800
F813        F  0.81350787  0.81645493  0.84941519    -0.18900
H814        H  0.74425528  0.74616770  0.85779179     0.16800
F815        F  0.74620828  0.67687562  0.78855958    -0.22600
H816        H  0.81375840  0.74752263  0.77973120     0.18600
C817        C  0.97944891  0.21235616  0.80638236    -0.26600
C818        C  0.97316986  0.17434107  0.81970431     0.07000
C819        C  0.98144850  0.17855311  0.84415099     0.26600
C820        C  0.99879271  0.22030414  0.85459658    -0.11100
C821        C  0.00875125  0.25836916  0.84075770    -0.25100
C822        C  0.99747727  0.25394045  0.81670294     0.37400
C823        C  0.96564687  0.13217702  0.80727655     0.07000
F824        F  0.97522557  0.14241881  0.85762151    -0.18900
H825        H  0.00782533  0.22296154  0.87305672     0.16800
F826        F  0.00702185  0.29009128  0.80279610    -0.22600
H827        H  0.97376055  0.21006164  0.78753793     0.18600
C828        C  0.93025376  0.11378912  0.79145267     0.26600
C829        C  0.92765909  0.07732275  0.77763519    -0.11100
C830        C  0.96035390  0.05872170  0.77930184    -0.25100
C831        C  0.99521006  0.07681642  0.79542857     0.37500
C832        C  0.99763769  0.11291541  0.80922934    -0.26800
F833        F  0.89840692  0.13122306  0.78930448    -0.18900
H834        H  0.90039244  0.06384968  0.76544194     0.16800
F835        F  0.02855713  0.06136943  0.79693883    -0.22600
H836        H  0.02581934  0.12714536  0.82078628     0.18600
C837        C  0.20471096  0.01316807  0.81180088    -0.26600
C838        C  0.16675570  0.02073042  0.81909636     0.07000
C839        C  0.16877694  0.04623303  0.83920948     0.26600
C840        C  0.20904376  0.06627597  0.85090437    -0.11100
C841        C  0.24748589  0.06053355  0.84291679    -0.25100
C842        C  0.24489191  0.03275141  0.82373874     0.37400
C843        C  0.12729099  0.00783384  0.80384313     0.07000
F844        F  0.13275051  0.05475805  0.84628056    -0.18900
H845        H  0.21086918  0.08841537  0.86535244     0.16800
F846        F  0.28195825  0.02776766  0.81532524    -0.22600
H847        H  0.20368728  0.99399930  0.79614350     0.18600
C848        C  0.12888786  0.03086493  0.78275869     0.26600
C849        C  0.09072171  0.02197963  0.76925934    -0.11100
C850        C  0.05053906  0.98891935  0.77608410    -0.25100
C851        C  0.04914268  0.96545754  0.79710031     0.37500
C852        C  0.08725031  0.97518401  0.81096985    -0.26800
F853        F  0.16700297  0.06332848  0.77577435    -0.18900
H854        H  0.09237985  0.04186371  0.75375567     0.16800
F855        F  0.01104458  0.93320107  0.80423519    -0.22600
H856        H  0.08553448  0.95747457  0.82732106     0.18600
C857        C  0.88657824  0.84324477  0.69751122    -0.22400
C858        C  0.84065767  0.82820865  0.70151185     0.07000
C859        C  0.82368067  0.85177916  0.71692101     0.26600
C860        C  0.85223716  0.88901646  0.72857279    -0.11100
C861        C  0.89825161  0.90351110  0.72509404    -0.25100
C862        C  0.91525363  0.88062199  0.70922221     0.37400
C863        C  0.81015905  0.78706023  0.69058618     0.07000
F864        F  0.77934955  0.83854002  0.72077135    -0.18900
H865        H  0.83847486  0.90632824  0.74059010     0.16800
F866        F  0.95965011  0.89311606  0.70591249    -0.22600
H867        H  0.90024652  0.82536270  0.68580833     0.18600
C868        C  0.79754696  0.78587674  0.66681378     0.26600
C869        C  0.76186477  0.74977381  0.65815939    -0.11100
C870        C  0.73830696  0.71455962  0.67314123    -0.25100
C871        C  0.75401121  0.71406682  0.69624378     0.37500
C872        C  0.78935816  0.75011743  0.70487409    -0.26800
F873        F  0.81705197  0.82121738  0.65261323    -0.18900
H874        H  0.75003019  0.75132794  0.64046346     0.16800
F875        F  0.73257379  0.68033422  0.71113455    -0.22600
H876        H  0.79887133  0.75030332  0.72318475     0.18600
C877        C  0.94067574  0.09642218  0.69200182    -0.26600
C878        C  0.97597633  0.13614475  0.69655379     0.07000
C879        C  0.00408400  0.13822337  0.71573182     0.26600
C880        C  0.99730055  0.10130653  0.72984990    -0.11100
C881        C  0.96212383  0.06158372  0.72538111    -0.25100
C882        C  0.93374457  0.05935665  0.70631686     0.37400
C883        C  0.98625539  0.17462890  0.68051544     0.07000
F884        F  0.03965131  0.17539730  0.72006011    -0.18900
H885        H  0.02057269  0.10336955  0.74387687     0.16800
F886        F  0.89950832  0.02136721  0.70153128    -0.22600
H887        H  0.91882818  0.09405678  0.67723071     0.18600
C888        C  0.99765042  0.17168728  0.65680715     0.26600
C889        C  0.01818110  0.20992749  0.64343195    -0.11100
C890        C  0.02677860  0.25143650  0.65333516    -0.25100
C891        C  0.01187830  0.25420079  0.67631295     0.37500
C892        C  0.99175312  0.21606310  0.68977083    -0.26800
F893        F  0.99316961  0.13226233  0.64736524    -0.18900
H894        H  0.03051568  0.20726293  0.62597487     0.16800
F895        F  0.02061555  0.29396997  0.68647126    -0.22600
H896        H  0.98313448  0.21903867  0.70797334     0.18600
C897        C  0.09959647  0.01507041  0.69180409    -0.26600
C898        C  0.12255655  0.98727660  0.69733941     0.07000
C899        C  0.10499241  0.95477193  0.71477708     0.26600
C900        C  0.06637545  0.95153290  0.72699686    -0.11100
C901        C  0.04495859  0.98102056  0.72236837    -0.25100
C902        C  0.06113313  0.01199662  0.70413213     0.37400
C903        C  0.16712562  0.99610839  0.68685997     0.07000
F904        F  0.12572861  0.92682710  0.72037889    -0.18900
H905        H  0.05398120  0.92691864  0.74072148     0.16800
F906        F  0.04171638  0.04137594  0.69933768    -0.22600
H907        H  0.11282076  0.04088814  0.67877039     0.18600
C908        C  0.17485288  0.00375603  0.66249557     0.26600
C909        C  0.21830483  0.02083722  0.65364869    -0.11100
C910        C  0.25454307  0.03079777  0.66897828    -0.25100
C911        C  0.24676891  0.01971713  0.69296473     0.37500
C912        C  0.20347382  0.00248894  0.70178302    -0.26800
F913        F  0.14048402  0.99680728  0.64744884    -0.18900
H914        H  0.22362711  0.02944015  0.63513706     0.16800
F915        F  0.28122095  0.02826380  0.70813624    -0.22600
H916        H  0.19856161  0.99709975  0.72059990     0.18600
loop_ 
_geom_bond_atom_site_label_1 
_geom_bond_atom_site_label_2 
_geom_bond_distance 
_geom_bond_site_symmetry_2 
_ccdc_geom_bond_type 
C1            H2   1.111       .  S
C1            C7   1.540   1_655  S
C1            C6   1.537       .  S
C1            C5   1.548   1_565  S
C3            H4   1.110       .  S
C3            C9   1.535       .  S
C3            C8   1.538   1_565  S
C3           C10   1.540   1_655  S
C5            C8   1.379       .  D
C5          C881   1.488       .  S
C6            C9   1.373       .  D
C6          C861   1.491       .  S
C7           C10   1.379       .  D
C7          C901   1.490       .  S
C8          C830   1.497       .  S
C9          C801   1.481       .  S
C10         C850   1.490       .  S
O11          C27   1.275       .  A
O11         Zn17   2.026   1_556  S
C12          O28   1.277       .  A
C12          O25   1.275       .  A
C12         C790   1.490       .  S
O13          C26   1.278       .  A
O13         Cd20   2.098       .  S
O14          C32   1.277       .  A
O14         Cd23   2.082       .  S
O15          C29   1.277       .  A
O15         Cd19   2.083       .  S
O16          C27   1.276       .  A
O16         Cd19   2.079       .  S
Zn17         O28   2.034       .  S
Zn17         O30   2.028       .  S
Zn17         O22   1.953       .  S
O18          C29   1.276       .  A
O18         Cd23   2.083   1_556  S
Cd19         O21   2.090       .  S
Cd19         O22   2.006   1_556  S
Cd20         O24   2.091   1_554  S
Cd20         O33   2.068       .  S
Cd20         O22   2.007       .  S
O21          C31   1.278       .  A
O22         Cd23   2.012       .  S
Cd23         O25   2.071       .  S
O24          C31   1.277       .  A
C26          O30   1.275       .  A
C26         C701   1.496       .  S
C27         C690   1.477       .  S
C29         C741   1.485       .  S
C31         C730   1.493       .  S
C32          O33   1.276       .  A
C32         C770   1.488       .  S
N34          C38   1.361       .  A
N34          C35   1.362       .  A
N34         C721   1.454       .  S
C35         C810   1.484       .  S
C35          C36   1.384       .  A
C36          C37   1.368       .  A
C36          H39   1.082       .  S
C37          C38   1.378       .  A
C37          H40   1.083       .  S
C38         C670   1.473       .  S
O41          C57   1.277       .  A
O41         Zn47   2.027       .  S
C42          O58   1.275       .  A
C42          O55   1.279       .  A
C42         C561   1.500       .  S
O43          C56   1.272       .  A
O43         Cd50   2.055       .  S
O44          C62   1.278       .  A
O44         Cd53   2.097       .  S
O45          C59   1.278       .  A
O45         Cd49   2.078   1_556  S
O46          C57   1.278       .  A
O46         Cd49   2.093       .  S
Zn47         O58   2.031   1_554  S
Zn47         O60   2.030       .  S
Zn47         O52   1.948   1_554  S
O48          C59   1.280       .  A
O48         Cd53   2.093       .  S
Cd49         O51   2.116       .  S
Cd49         O52   2.011   1_554  S
Cd50         O54   2.076       .  S
Cd50         O63   2.051   1_554  S
Cd50         O52   1.994   1_554  S
O51          C61   1.280       .  A
O52         Cd53   2.020       .  S
Cd53         O55   2.104       .  S
O54          C61   1.275       .  A
C56          O60   1.276       .  A
C56         C590   1.484       .  S
C57         C621   1.494       .  S
C59         C601   1.492       .  S
C61         C641   1.495       .  S
C62          O63   1.273       .  A
C62         C661   1.488       .  S
N64          C68   1.358       .  A
N64          C65   1.360       .  A
N64         C710   1.444       .  S
C65         C541   1.478       .  S
C65          C66   1.384       .  A
C66          C67   1.369       .  A
C66          H69   1.083       .  S
C67          C68   1.380       .  A
C67          H70   1.082       .  S
C68         C581   1.480       .  S
N71          C75   1.359       .  A
N71          C72   1.355       .  A
N71         C610   1.439       .  S
C72         C841   1.472       .  S
C72          C73   1.380       .  A
C73          C74   1.373       .  A
C73          H76   1.082       .  S
C74          C75   1.384       .  A
C74          H77   1.082       .  S
C75         C681   1.482       .  S
N78          C82   1.359       .  A
N78          C79   1.358       .  A
N78         C630   1.439   1_655  S
C79         C521   1.483   1_655  S
C79          C80   1.386       .  A
C80          C81   1.372       .  A
C80          H83   1.082       .  S
C81          C82   1.381       .  A
C81          H84   1.082       .  S
C82         C761   1.483       .  S
N85          C89   1.363       .  A
N85          C86   1.363       .  A
N85         C750   1.444   1_455  S
C86         C821   1.486       .  S
C86          C87   1.383       .  A
C87          C88   1.373       .  A
C87          H90   1.082       .  S
C88          C89   1.380       .  A
C88          H91   1.082       .  S
C89         C570   1.484       .  S
N92          C96   1.364   1_545  A
N92          C93   1.361   1_545  A
N92         C781   1.438       .  S
C93         C501   1.483   1_565  S
C93          C94   1.379       .  A
C94          C95   1.374       .  A
C94          H97   1.082       .  S
C95          C96   1.385       .  A
C95          H98   1.082       .  S
C96         C650   1.496       .  S
O99         C115   1.277       .  A
O99        Zn105   2.035       .  S
C100        O116   1.276       .  A
C100        O113   1.278       .  A
C100        C421   1.484       .  S
O101        C114   1.279       .  A
O101       Cd108   2.098       .  S
O102        C120   1.279       .  A
O102       Cd111   2.106       .  S
O103        C117   1.275       .  A
O103       Cd107   2.071       .  S
O104        C115   1.276       .  A
O104       Cd107   2.085       .  S
Zn105       O116   2.016       .  S
Zn105       O118   2.031       .  S
Zn105       O110   1.949       .  S
O106        C117   1.278       .  A
O106       Cd111   2.094       .  S
Cd107       O109   2.077       .  S
Cd107       O110   2.012       .  S
Cd108       O112   2.058       .  S
Cd108       O121   2.076       .  S
Cd108       O110   2.002       .  S
O109        C119   1.275       .  A
O110       Cd111   2.017       .  S
Cd111       O113   2.086       .  S
O112        C119   1.275       .  A
C114        O118   1.275       .  A
C114        C450   1.498       .  S
C115        C401   1.495       .  S
C117        C381   1.492       .  S
C119        C461   1.474       .  S
C120        O121   1.275       .  A
C120        C481   1.492       .  S
N122        C126   1.363       .  A
N122        C123   1.365       .  A
N122        C490   1.453       .  S
C123        C870   1.488       .  S
C123        C124   1.385       .  A
C124        C125   1.368       .  A
C124        H127   1.082       .  S
C125        C126   1.378       .  A
C125        H128   1.082       .  S
C126        C361   1.477       .  S
O129        C145   1.276       .  A
O129       Zn135   2.030       .  S
C130        O146   1.279       .  A
C130        O143   1.276       .  A
C130        C350   1.488       .  S
O131        C144   1.273       .  A
O131       Cd138   2.060       .  S
O132        C150   1.278       .  A
O132       Cd141   2.100       .  S
O133        C147   1.278       .  A
O133       Cd137   2.086       .  S
O134        C145   1.277       .  A
O134       Cd137   2.087       .  S
Zn135       O146   2.045       .  S
Zn135       O148   2.046       .  S
Zn135       O140   1.956       .  S
O136        C147   1.276       .  A
O136       Cd141   2.077       .  S
Cd137       O139   2.099       .  S
Cd137       O140   2.013       .  S
Cd138       O142   2.059       .  S
Cd138       O151   2.061       .  S
Cd138       O140   1.991       .  S
O139        C149   1.278       .  A
O140       Cd141   2.014       .  S
Cd141       O143   2.077       .  S
O142        C149   1.273       .  A
C144        O148   1.278       .  A
C144        C281   1.491       .  S
C145        C270   1.484       .  S
C147        C301   1.479       .  S
C149        C370   1.490       .  S
C150        O151   1.274       .  A
C150        C321   1.491       .  S
N152        C156   1.358       .  A
N152        C153   1.359       .  A
N152        C310   1.442       .  S
C153        C910   1.480       .  S
C153        C154   1.384       .  A
C154        C155   1.373       .  A
C154        H157   1.082       .  S
C155        C156   1.380       .  A
C155        H158   1.082       .  S
C156        C430   1.474       .  S
N159        C163   1.362       .  A
N159        C160   1.358       .  A
N159        C390   1.440       .  S
C160        C890   1.477       .  S
C160        C161   1.380       .  A
C161        C162   1.373       .  A
C161        H164   1.082       .  S
C162        C163   1.385       .  A
C162        H165   1.082       .  S
C163        C261   1.488       .  S
N166        C170   1.359       .  A
N166        C167   1.358       .  A
N166        C341   1.442   1_655  S
C167        C250   1.480       .  S
C167        C168   1.383       .  A
C168        C169   1.372       .  A
C168        H171   1.082       .  S
C169        C170   1.382       .  A
C169        H172   1.082       .  S
C170        C470   1.479       .  S
N173        C177   1.362       .  A
N173        C174   1.366       .  A
N173        C441   1.450       .  S
C174        C230   1.488       .  S
C174        C175   1.386       .  A
C175        C176   1.366       .  A
C175        H178   1.083       .  S
C176        C177   1.378       .  A
C176        H179   1.082       .  S
C177        C290   1.484       .  S
N180        C184   1.363   1_545  A
N180        C181   1.366   1_545  A
N180        C410   1.440       .  S
C181        C201   1.500   1_565  S
C181        C182   1.388       .  A
C182        C183   1.371       .  A
C182        H185   1.082       .  S
C183        C184   1.379       .  A
C183        H186   1.082       .  S
C184        C330   1.491       .  S
C187        H188   1.111       .  S
C187        C193   1.537       .  S
C187        C192   1.537       .  S
C187        C191   1.545       .  S
C189        H190   1.109       .  S
C189        C195   1.540       .  S
C189        C194   1.548       .  S
C189        C196   1.541       .  S
C191        C194   1.385       .  D
C191        C210   1.505   1_455  S
C192        C195   1.375       .  D
C192        C221   1.489       .  S
C193        C196   1.380       .  D
C193        C241   1.485   1_545  S
C194        C510   1.498   1_455  S
C195        C550   1.499       .  S
C196        C530   1.498   1_545  S
C197        C198   1.404   1_565  A
C197        C202   1.394       .  A
C197        H207   1.082       .  S
C198        C203   1.506       .  S
C198        C199   1.415       .  A
C199        C200   1.412       .  A
C199        F204   1.356       .  S
C200        C201   1.407       .  A
C200        H205   1.081       .  S
C201        C202   1.412   1_545  A
C202        F206   1.358       .  S
C203        C208   1.413       .  A
C203        C212   1.410       .  A
C208        C209   1.400       .  A
C208        F213   1.358       .  S
C209        C210   1.405       .  A
C209        H214   1.083       .  S
C210        C211   1.410       .  A
C211        C212   1.407       .  A
C211        F215   1.357       .  S
C212        H216   1.082       .  S
C217        C218   1.408       .  A
C217        C222   1.403       .  A
C217        H227   1.083       .  S
C218        C223   1.499       .  S
C218        C219   1.414       .  A
C219        C220   1.403       .  A
C219        F224   1.357       .  S
C220        C221   1.400       .  A
C220        H225   1.083       .  S
C221        C222   1.406       .  A
C222        F226   1.358       .  S
C223        C228   1.410       .  A
C223        C232   1.407       .  A
C228        C229   1.403       .  A
C228        F233   1.357       .  S
C229        C230   1.405       .  A
C229        H234   1.081       .  S
C230        C231   1.409       .  A
C231        C232   1.402       .  A
C231        F235   1.358       .  S
C232        H236   1.083       .  S
C237        C238   1.404       .  A
C237        C242   1.394       .  A
C237        H247   1.084   1_455  S
C238        C243   1.482       .  S
C238        C239   1.407       .  A
C239        C240   1.404       .  A
C239        F244   1.357       .  S
C240        C241   1.404       .  A
C240        H245   1.083   1_565  S
C241        C242   1.405       .  A
C242        F246   1.358   1_455  S
C243        C248   1.407       .  A
C243        C252   1.403       .  A
C248        C249   1.404       .  A
C248        F253   1.357       .  S
C249        C250   1.405   1_455  A
C249        H254   1.083   1_455  S
C250        C251   1.405   1_655  A
C251        C252   1.395       .  A
C251        F255   1.358       .  S
C252        H256   1.084       .  S
C257        C258   1.408       .  A
C257        C262   1.405       .  A
C257        H267   1.083       .  S
C258        C263   1.492       .  S
C258        C259   1.408       .  A
C259        C260   1.396       .  A
C259        F264   1.358       .  S
C260        C261   1.404       .  A
C260        H265   1.083       .  S
C261        C262   1.408       .  A
C262        F266   1.356       .  S
C263        C268   1.409       .  A
C263        C272   1.408       .  A
C268        C269   1.401       .  A
C268        F273   1.357       .  S
C269        C270   1.406       .  A
C269        H274   1.083       .  S
C270        C271   1.406       .  A
C271        C272   1.401       .  A
C271        F275   1.357       .  S
C272        H276   1.083       .  S
C277        C278   1.403       .  A
C277        C282   1.399       .  A
C277        H287   1.083       .  S
C278        C283   1.488       .  S
C278        C279   1.408       .  A
C279        C280   1.401       .  A
C279        F284   1.357       .  S
C280        C281   1.407       .  A
C280        H285   1.083       .  S
C281        C282   1.413       .  A
C282        F286   1.357       .  S
C283        C288   1.407       .  A
C283        C292   1.406       .  A
C288        C289   1.398       .  A
C288        F293   1.357       .  S
C289        C290   1.405       .  A
C289        H294   1.083       .  S
C290        C291   1.406       .  A
C291        C292   1.401       .  A
C291        F295   1.357       .  S
C292        H296   1.083       .  S
C297        C298   1.406       .  A
C297        C302   1.398       .  A
C297        H307   1.083       .  S
C298        C303   1.489       .  S
C298        C299   1.409       .  A
C299        C300   1.402       .  A
C299        F304   1.357       .  S
C300        C301   1.405       .  A
C300        H305   1.083       .  S
C301        C302   1.405       .  A
C302        F306   1.357       .  S
C303        C308   1.408       .  A
C303        C312   1.406       .  A
C308        C309   1.398       .  A
C308        F313   1.357       .  S
C309        C310   1.403   1_565  A
C309        H314   1.083       .  S
C310        C311   1.406       .  A
C311        C312   1.400   1_545  A
C311        F315   1.356       .  S
C312        H316   1.083       .  S
C317        C318   1.403       .  A
C317        C322   1.396       .  A
C317        H327   1.083       .  S
C318        C323   1.491       .  S
C318        C319   1.409       .  A
C319        C320   1.406       .  A
C319        F324   1.357       .  S
C320        C321   1.409       .  A
C320        H325   1.083       .  S
C321        C322   1.411       .  A
C322        F326   1.358       .  S
C323        C328   1.409       .  A
C323        C332   1.405       .  A
C328        C329   1.401       .  A
C328        F333   1.357       .  S
C329        C330   1.405       .  A
C329        H334   1.082       .  S
C330        C331   1.409       .  A
C331        C332   1.401       .  A
C331        F335   1.357       .  S
C332        H336   1.083       .  S
C337        C338   1.403       .  A
C337        C342   1.399       .  A
C337        H347   1.083       .  S
C338        C343   1.482       .  S
C338        C339   1.407       .  A
C339        C340   1.401       .  A
C339        F344   1.357       .  S
C340        C341   1.405       .  A
C340        H345   1.083   1_455  S
C341        C342   1.406       .  A
C342        F346   1.357       .  S
C343        C348   1.405       .  A
C343        C352   1.403       .  A
C348        C349   1.400       .  A
C348        F353   1.358       .  S
C349        C350   1.407       .  A
C349        H354   1.083       .  S
C350        C351   1.412       .  A
C351        C352   1.402       .  A
C351        F355   1.357       .  S
C352        H356   1.083       .  S
C357        C358   1.406       .  A
C357        C362   1.397       .  A
C357        H367   1.083       .  S
C358        C363   1.491       .  S
C358        C359   1.411       .  A
C359        C360   1.403       .  A
C359        F364   1.357       .  S
C360        C361   1.402       .  A
C360        H365   1.083       .  S
C361        C362   1.404       .  A
C362        F366   1.358       .  S
C363        C368   1.410       .  A
C363        C372   1.404       .  A
C368        C369   1.403       .  A
C368        F373   1.357       .  S
C369        C370   1.407       .  A
C369        H374   1.083       .  S
C370        C371   1.411       .  A
C371        C372   1.398       .  A
C371        F375   1.357       .  S
C372        H376   1.083       .  S
C377        C378   1.402       .  A
C377        C382   1.398       .  A
C377        H387   1.083       .  S
C378        C383   1.484       .  S
C378        C379   1.406       .  A
C379        C380   1.403       .  A
C379        F384   1.357       .  S
C380        C381   1.409       .  A
C380        H385   1.083       .  S
C381        C382   1.413       .  A
C382        F386   1.357       .  S
C383        C388   1.407       .  A
C383        C392   1.405       .  A
C388        C389   1.399       .  A
C388        F393   1.357       .  S
C389        C390   1.402   1_655  A
C389        H394   1.082       .  S
C390        C391   1.405   1_455  A
C391        C392   1.401       .  A
C391        F395   1.357   1_655  S
C392        H396   1.083       .  S
C397        C398   1.404       .  A
C397        C402   1.405       .  A
C397        H407   1.083       .  S
C398        C403   1.488       .  S
C398        C399   1.407       .  A
C399        C400   1.399       .  A
C399        F404   1.358       .  S
C400        C401   1.407       .  A
C400        H405   1.083       .  S
C401        C402   1.414       .  A
C402        F406   1.357       .  S
C403        C408   1.406       .  A
C403        C412   1.409       .  A
C408        C409   1.395       .  A
C408        F413   1.358       .  S
C409        C410   1.403       .  A
C409        H414   1.083       .  S
C410        C411   1.404       .  A
C411        C412   1.406       .  A
C411        F415   1.356       .  S
C412        H416   1.083       .  S
C417        C418   1.405       .  A
C417        C422   1.401       .  A
C417        H427   1.083       .  S
C418        C423   1.484       .  S
C418        C419   1.406       .  A
C419        C420   1.398       .  A
C419        F424   1.358       .  S
C420        C421   1.407       .  A
C420        H425   1.083       .  S
C421        C422   1.408       .  A
C422        F426   1.357       .  S
C423        C428   1.409       .  A
C423        C432   1.404       .  A
C428        C429   1.403       .  A
C428        F433   1.357       .  S
C429        C430   1.402       .  A
C429        H434   1.083       .  S
C430        C431   1.403       .  A
C431        C432   1.395       .  A
C431        F435   1.358       .  S
C432        H436   1.083       .  S
C437        C438   1.410       .  A
C437        C442   1.408       .  A
C437        H447   1.083       .  S
C438        C443   1.496       .  S
C438        C439   1.406       .  A
C439        C440   1.399       .  A
C439        F444   1.358       .  S
C440        C441   1.408       .  A
C440        H445   1.083       .  S
C441        C442   1.407       .  A
C442        F446   1.354       .  S
C443        C448   1.410       .  A
C443        C452   1.404       .  A
C448        C449   1.403       .  A
C448        F453   1.357       .  S
C449        C450   1.408       .  A
C449        H454   1.083       .  S
C450        C451   1.414       .  A
C451        C452   1.404       .  A
C451        F455   1.357       .  S
C452        H456   1.083       .  S
C457        C458   1.406       .  A
C457        C462   1.402       .  A
C457        H467   1.083       .  S
C458        C463   1.481       .  S
C458        C459   1.406       .  A
C459        C460   1.393       .  A
C459        F464   1.358       .  S
C460        C461   1.403       .  A
C460        H465   1.084       .  S
C461        C462   1.406       .  A
C462        F466   1.357       .  S
C463        C468   1.408       .  A
C463        C472   1.403       .  A
C468        C469   1.404       .  A
C468        F473   1.357       .  S
C469        C470   1.406       .  A
C469        H474   1.083       .  S
C470        C471   1.404       .  A
C471        C472   1.390       .  A
C471        F475   1.358       .  S
C472        H476   1.084       .  S
C477        C478   1.410       .  A
C477        C482   1.404       .  A
C477        H487   1.083       .  S
C478        C483   1.501       .  S
C478        C479   1.409       .  A
C479        C480   1.403       .  A
C479        F484   1.357       .  S
C480        C481   1.408       .  A
C480        H485   1.083       .  S
C481        C482   1.407       .  A
C482        F486   1.357       .  S
C483        C488   1.411       .  A
C483        C492   1.407       .  A
C488        C489   1.403       .  A
C488        F493   1.357       .  S
C489        C490   1.407       .  A
C489        H494   1.080       .  S
C490        C491   1.412       .  A
C491        C492   1.403       .  A
C491        F495   1.357       .  S
C492        H496   1.083       .  S
C497        C498   1.406       .  A
C497        C502   1.404       .  A
C497        H507   1.083       .  S
C498        C503   1.490       .  S
C498        C499   1.406       .  A
C499        C500   1.403       .  A
C499        F504   1.357       .  S
C500        C501   1.405       .  A
C500        H505   1.083       .  S
C501        C502   1.406       .  A
C502        F506   1.357       .  S
C503        C508   1.406       .  A
C503        C512   1.406       .  A
C508        C509   1.399       .  A
C508        F513   1.358       .  S
C509        C510   1.407       .  A
C509        H514   1.083       .  S
C510        C511   1.408       .  A
C511        C512   1.407       .  A
C511        F515   1.357   1_655  S
C512        H516   1.083       .  S
C517        C518   1.412       .  A
C517        C522   1.408       .  A
C517        H527   1.082       .  S
C518        C523   1.495       .  S
C518        C519   1.408   1_455  A
C519        C520   1.392       .  A
C519        F524   1.358       .  S
C520        C521   1.403   1_655  A
C520        H525   1.084       .  S
C521        C522   1.405       .  A
C522        F526   1.357       .  S
C523        C528   1.409       .  A
C523        C532   1.408       .  A
C528        C529   1.400       .  A
C528        F533   1.357       .  S
C529        C530   1.407       .  A
C529        H534   1.083       .  S
C530        C531   1.407       .  A
C531        C532   1.399       .  A
C531        F535   1.356   1_565  S
C532        H536   1.083       .  S
C537        C538   1.403       .  A
C537        C542   1.402       .  A
C537        H547   1.083       .  S
C538        C543   1.484       .  S
C538        C539   1.406       .  A
C539        C540   1.401       .  A
C539        F544   1.358       .  S
C540        C541   1.404       .  A
C540        H545   1.084       .  S
C541        C542   1.408       .  A
C542        F546   1.357       .  S
C543        C548   1.405       .  A
C543        C552   1.404       .  A
C548        C549   1.397       .  A
C548        F553   1.358       .  S
C549        C550   1.405       .  A
C549        H554   1.082       .  S
C550        C551   1.411       .  A
C551        C552   1.406       .  A
C551        F555   1.357       .  S
C552        H556   1.083       .  S
C557        C558   1.404       .  A
C557        C562   1.403       .  A
C557        H567   1.083       .  S
C558        C563   1.496       .  S
C558        C559   1.409       .  A
C559        C560   1.405       .  A
C559        F564   1.357       .  S
C560        C561   1.409       .  A
C560        H565   1.083       .  S
C561        C562   1.414       .  A
C562        F566   1.357       .  S
C563        C568   1.410       .  A
C563        C572   1.409       .  A
C568        C569   1.401       .  A
C568        F573   1.357       .  S
C569        C570   1.402       .  A
C569        H574   1.084       .  S
C570        C571   1.405       .  A
C571        C572   1.406       .  A
C571        F575   1.357       .  S
C572        H576   1.083       .  S
C577        C578   1.404       .  A
C577        C582   1.397       .  A
C577        H587   1.083       .  S
C578        C583   1.481       .  S
C578        C579   1.406       .  A
C579        C580   1.398       .  A
C579        F584   1.357       .  S
C580        C581   1.404       .  A
C580        H585   1.083       .  S
C581        C582   1.406       .  A
C582        F586   1.357       .  S
C583        C588   1.407       .  A
C583        C592   1.402       .  A
C588        C589   1.398       .  A
C588        F593   1.358       .  S
C589        C590   1.406       .  A
C589        H594   1.083       .  S
C590        C591   1.412       .  A
C591        C592   1.398       .  A
C591        F595   1.357       .  S
C592        H596   1.083       .  S
C597        C598   1.403       .  A
C597        C602   1.398       .  A
C597        H607   1.083       .  S
C598        C603   1.487       .  S
C598        C599   1.407       .  A
C599        C600   1.403       .  A
C599        F604   1.357       .  S
C600        C601   1.409       .  A
C600        H605   1.083       .  S
C601        C602   1.412       .  A
C602        F606   1.357       .  S
C603        C608   1.409       .  A
C603        C612   1.406       .  A
C608        C609   1.400   1_565  A
C608        F613   1.357       .  S
C609        C610   1.402       .  A
C609        H614   1.083       .  S
C610        C611   1.404       .  A
C611        C612   1.400   1_545  A
C611        F615   1.357       .  S
C612        H616   1.083       .  S
C617        C618   1.403       .  A
C617        C622   1.398       .  A
C617        H627   1.083       .  S
C618        C623   1.486       .  S
C618        C619   1.405       .  A
C619        C620   1.405       .  A
C619        F624   1.357       .  S
C620        C621   1.410       .  A
C620        H625   1.083       .  S
C621        C622   1.412       .  A
C622        F626   1.357       .  S
C623        C628   1.410       .  A
C623        C632   1.403       .  A
C628        C629   1.407       .  A
C628        F633   1.357       .  S
C629        C630   1.404       .  A
C629        H634   1.083       .  S
C630        C631   1.403       .  A
C631        C632   1.394       .  A
C631        F635   1.357       .  S
C632        H636   1.084       .  S
C637        C638   1.409       .  A
C637        C642   1.407       .  A
C637        H647   1.083       .  S
C638        C643   1.499       .  S
C638        C639   1.409       .  A
C639        C640   1.403       .  A
C639        F644   1.357       .  S
C640        C641   1.408       .  A
C640        H645   1.083       .  S
C641        C642   1.409       .  A
C642        F646   1.357       .  S
C643        C648   1.412       .  A
C643        C652   1.404       .  A
C648        C649   1.409       .  A
C648        F653   1.357       .  S
C649        C650   1.407       .  A
C649        H654   1.082       .  S
C650        C651   1.410       .  A
C651        C652   1.400       .  A
C651        F655   1.358       .  S
C652        H656   1.083       .  S
C657        C658   1.397       .  A
C657        C662   1.395       .  A
C657        H667   1.084       .  S
C658        C663   1.474       .  S
C658        C659   1.404       .  A
C659        C660   1.403       .  A
C659        F664   1.357       .  S
C660        C661   1.409       .  A
C660        H665   1.083       .  S
C661        C662   1.414       .  A
C662        F666   1.357       .  S
C663        C668   1.403       .  A
C663        C672   1.404       .  A
C668        C669   1.396       .  A
C668        F673   1.358       .  S
C669        C670   1.403       .  A
C669        H674   1.084       .  S
C670        C671   1.404       .  A
C671        C672   1.402       .  A
C671        F675   1.357       .  S
C672        H676   1.083       .  S
C677        C678   1.406       .  A
C677        C682   1.395       .  A
C677        H687   1.082       .  S
C678        C683   1.493       .  S
C678        C679   1.412       .  A
C679        C680   1.403       .  A
C679        F684   1.357       .  S
C680        C681   1.404       .  A
C680        H685   1.083       .  S
C681        C682   1.404       .  A
C682        F686   1.358       .  S
C683        C688   1.411       .  A
C683        C692   1.408       .  A
C688        C689   1.400       .  A
C688        F693   1.357       .  S
C689        C690   1.402       .  A
C689        H694   1.083       .  S
C690        C691   1.405       .  A
C691        C692   1.400       .  A
C691        F695   1.358       .  S
C692        H696   1.083       .  S
C697        C698   1.406       .  A
C697        C702   1.403       .  A
C697        H707   1.083       .  S
C698        C703   1.491       .  S
C698        C699   1.405       .  A
C699        C700   1.403       .  A
C699        F704   1.357       .  S
C700        C701   1.411       .  A
C700        H705   1.083       .  S
C701        C702   1.411       .  A
C702        F706   1.357       .  S
C703        C708   1.405       .  A
C703        C712   1.409       .  A
C708        C709   1.398       .  A
C708        F713   1.358       .  S
C709        C710   1.405       .  A
C709        H714   1.083       .  S
C710        C711   1.404       .  A
C711        C712   1.407       .  A
C711        F715   1.355       .  S
C712        H716   1.083       .  S
C717        C718   1.406       .  A
C717        C722   1.401       .  A
C717        H727   1.083       .  S
C718        C723   1.498       .  S
C718        C719   1.409       .  A
C719        C720   1.405       .  A
C719        F724   1.357       .  S
C720        C721   1.408       .  A
C720        H725   1.080       .  S
C721        C722   1.412       .  A
C722        F726   1.357       .  S
C723        C728   1.410       .  A
C723        C732   1.407       .  A
C728        C729   1.400       .  A
C728        F733   1.357       .  S
C729        C730   1.405       .  A
C729        H734   1.083       .  S
C730        C731   1.412       .  A
C731        C732   1.406       .  A
C731        F735   1.357       .  S
C732        H736   1.083       .  S
C737        C738   1.408       .  A
C737        C742   1.403       .  A
C737        H747   1.083       .  S
C738        C743   1.495       .  S
C738        C739   1.410       .  A
C739        C740   1.399       .  A
C739        F744   1.357       .  S
C740        C741   1.404       .  A
C740        H745   1.083       .  S
C741        C742   1.408       .  A
C742        F746   1.358       .  S
C743        C748   1.410       .  A
C743        C752   1.408       .  A
C748        C749   1.399   1_655  A
C748        F753   1.357       .  S
C749        C750   1.404   1_455  A
C749        H754   1.083       .  S
C750        C751   1.406       .  A
C751        C752   1.401       .  A
C751        F755   1.356       .  S
C752        H756   1.083       .  S
C757        C758   1.404       .  A
C757        C762   1.399       .  A
C757        H767   1.083       .  S
C758        C763   1.483       .  S
C758        C759   1.407       .  A
C759        C760   1.397       .  A
C759        F764   1.358       .  S
C760        C761   1.404       .  A
C760        H765   1.081       .  S
C761        C762   1.407       .  A
C762        F766   1.357       .  S
C763        C768   1.406       .  A
C763        C772   1.403       .  A
C768        C769   1.402       .  A
C768        F773   1.357       .  S
C769        C770   1.409       .  A
C769        H774   1.083       .  S
C770        C771   1.411       .  A
C771        C772   1.395       .  A
C771        F775   1.358       .  S
C772        H776   1.083       .  S
C777        C778   1.407       .  A
C777        C782   1.400       .  A
C777        H787   1.083       .  S
C778        C783   1.490       .  S
C778        C779   1.410       .  A
C779        C780   1.399       .  A
C779        F784   1.358       .  S
C780        C781   1.401       .  A
C780        H785   1.083       .  S
C781        C782   1.403       .  A
C782        F786   1.356       .  S
C783        C788   1.408       .  A
C783        C792   1.405       .  A
C788        C789   1.401       .  A
C788        F793   1.358       .  S
C789        C790   1.409       .  A
C789        H794   1.083       .  S
C790        C791   1.410       .  A
C791        C792   1.398       .  A
C791        F795   1.357       .  S
C792        H796   1.083       .  S
C797        C798   1.409       .  A
C797        C802   1.401       .  A
C797        H807   1.083       .  S
C798        C803   1.492       .  S
C798        C799   1.409       .  A
C799        C800   1.399       .  A
C799        F804   1.357       .  S
C800        C801   1.402       .  A
C800        H805   1.084       .  S
C801        C802   1.401       .  A
C802        F806   1.357       .  S
C803        C808   1.410       .  A
C803        C812   1.406       .  A
C808        C809   1.404       .  A
C808        F813   1.357       .  S
C809        C810   1.405       .  A
C809        H814   1.083       .  S
C810        C811   1.407       .  A
C811        C812   1.398       .  A
C811        F815   1.358       .  S
C812        H816   1.083       .  S
C817        C818   1.403       .  A
C817        C822   1.400       .  A
C817        H827   1.083       .  S
C818        C823   1.491       .  S
C818        C819   1.411       .  A
C819        C820   1.406       .  A
C819        F824   1.357       .  S
C820        C821   1.404   1_655  A
C820        H825   1.083   1_655  S
C821        C822   1.408   1_455  A
C822        F826   1.357   1_655  S
C823        C828   1.409       .  A
C823        C832   1.403       .  A
C828        C829   1.407       .  A
C828        F833   1.357       .  S
C829        C830   1.407       .  A
C829        H834   1.083       .  S
C830        C831   1.408       .  A
C831        C832   1.398       .  A
C831        F835   1.355   1_655  S
C832        H836   1.083   1_655  S
C837        C838   1.404       .  A
C837        C842   1.400       .  A
C837        H847   1.083   1_545  S
C838        C843   1.475       .  S
C838        C839   1.404       .  A
C839        C840   1.397       .  A
C839        F844   1.358       .  S
C840        C841   1.402       .  A
C840        H845   1.083       .  S
C841        C842   1.403       .  A
C842        F846   1.357       .  S
C843        C848   1.402       .  A
C843        C852   1.402   1_545  A
C848        C849   1.394       .  A
C848        F853   1.358       .  S
C849        C850   1.406   1_545  A
C849        H854   1.082       .  S
C850        C851   1.408       .  A
C851        C852   1.402       .  A
C851        F855   1.357       .  S
C852        H856   1.083       .  S
C857        C858   1.404       .  A
C857        C862   1.406       .  A
C857        H867   1.083       .  S
C858        C863   1.485       .  S
C858        C859   1.407       .  A
C859        C860   1.400       .  A
C859        F864   1.357       .  S
C860        C861   1.403       .  A
C860        H865   1.083       .  S
C861        C862   1.408       .  A
C862        F866   1.357       .  S
C863        C868   1.407       .  A
C863        C872   1.402       .  A
C868        C869   1.406       .  A
C868        F873   1.357       .  S
C869        C870   1.407       .  A
C869        H874   1.083       .  S
C870        C871   1.409       .  A
C871        C872   1.400       .  A
C871        F875   1.358       .  S
C872        H876   1.084       .  S
C877        C878   1.406       .  A
C877        C882   1.405       .  A
C877        H887   1.083       .  S
C878        C883   1.486       .  S
C878        C879   1.407   1_655  A
C879        C880   1.396   1_455  A
C879        F884   1.358       .  S
C880        C881   1.404       .  A
C880        H885   1.083   1_655  S
C881        C882   1.406       .  A
C882        F886   1.357       .  S
C883        C888   1.407       .  A
C883        C892   1.406       .  A
C888        C889   1.402   1_655  A
C888        F893   1.357       .  S
C889        C890   1.403       .  A
C889        H894   1.083       .  S
C890        C891   1.404       .  A
C891        C892   1.400   1_455  A
C891        F895   1.358       .  S
C892        H896   1.083       .  S
C897        C898   1.407   1_545  A
C897        C902   1.400       .  A
C897        H907   1.083       .  S
C898        C903   1.488       .  S
C898        C899   1.407       .  A
C899        C900   1.400       .  A
C899        F904   1.357       .  S
C900        C901   1.406       .  A
C900        H905   1.083       .  S
C901        C902   1.405   1_565  A
C902        F906   1.357       .  S
C903        C908   1.409   1_565  A
C903        C912   1.405   1_565  A
C908        C909   1.402       .  A
C908        F913   1.357   1_545  S
C909        C910   1.403       .  A
C909        H914   1.083       .  S
C910        C911   1.405       .  A
C911        C912   1.397       .  A
C911        F915   1.358       .  S
C912        H916   1.083   1_545  S
