geometry optimzed in LAMMPS
_audit_creation_date              2020-11-30 
_audit_creation_method            'lammps2cif' 
_symmetry_space_group_name_H-M    'P1' 
_symmetry_Int_Tables_number       1 
_symmetry_cell_setting            triclinic 
loop_ 
_symmetry_equiv_pos_as_xyz 
  x,y,z 
_cell_length_a                    32.21030689 
_cell_length_b                    32.212327499015544 
_cell_length_c                    30.24665683106377 
_cell_angle_alpha                 89.98027726522643 
_cell_angle_beta                  90.01966532765712 
_cell_angle_gamma                 120.05529427883577 
loop_ 
_atom_site_label 
_atom_site_type_symbol 
_atom_site_fract_x 
_atom_site_fract_y 
_atom_site_fract_z 
_atom_site_charge 
C1          C  0.21316905  0.20984007  0.16124826     0.05800
C2          C  0.21188281  0.20820059  0.11467463    -0.10400
C3          C  0.25161928  0.24223958  0.08939718     0.03300
C4          C  0.29227155  0.27716233  0.11286203    -0.08900
C5          C  0.29196137  0.28054839  0.15877118     0.05800
C6          C  0.25271368  0.24676296  0.18293616    -0.08300
H7          H  0.17989411  0.18040166  0.09893627     0.11400
H8          H  0.32505853  0.30220236  0.09633593     0.08900
H9          H  0.25322308  0.24883705  0.21875246     0.08700
C10         C  0.21458158  0.20825803  0.46761696     0.05800
C11         C  0.21761348  0.20246819  0.01406572    -0.10400
C12         C  0.25166750  0.24219398  0.03933816     0.03300
C13         C  0.28658979  0.28284705  0.01586871    -0.08900
C14         C  0.29313001  0.27925191  0.47001297     0.05800
C15         C  0.25432645  0.24480901  0.44582017    -0.08300
H16         H  0.18981603  0.17048076  0.02980680     0.11400
H17         H  0.31164260  0.31562625  0.03239502     0.08900
H18         H  0.25517325  0.24629798  0.40997661     0.08700
C19         C  0.24556456  0.46809794  0.16135429     0.05800
C20         C  0.24725314  0.46857300  0.11480610    -0.10400
C21         C  0.21326474  0.47427016  0.08952313     0.03300
C22         C  0.17845110  0.48014034  0.11300451    -0.08900
C23         C  0.17500146  0.47638568  0.15893936     0.05800
C24         C  0.20870541  0.47076612  0.18308191    -0.08300
H25         H  0.27497548  0.46429228  0.09909686     0.11400
H26         H  0.15344782  0.48789040  0.09647146     0.08900
H27         H  0.20656927  0.46902061  0.21889075     0.08700
C28         C  0.24623475  0.47012819  0.46736251     0.05800
C29         C  0.25239024  0.47858245  0.01410716    -0.10400
C30         C  0.21304467  0.47377871  0.03944119     0.03300
C31         C  0.17239457  0.46804194  0.01601030    -0.08900
C32         C  0.17535555  0.47776856  0.47005596     0.05800
C33         C  0.20972904  0.47349608  0.44572375    -0.08300
H34         H  0.28440913  0.48284606  0.02980310     0.11400
H35         H  0.13990930  0.46106904  0.03259970     0.08900
H36         H  0.20819461  0.47301040  0.40988197     0.08700
C37         C  0.48721345  0.24126901  0.16122069     0.04800
C38         C  0.48417726  0.20155538  0.18292024    -0.10400
C39         C  0.47965183  0.16271749  0.15871452     0.03300
C40         C  0.47725036  0.16294480  0.11272128    -0.08900
C41         C  0.48313054  0.20365458  0.08930163     0.05800
C42         C  0.48798191  0.24301411  0.11463554    -0.08300
H43         H  0.48485408  0.20066091  0.21876147     0.11400
H44         H  0.47028833  0.13047749  0.09610563     0.08900
H45         H  0.49240055  0.27509066  0.09893423     0.08700
C46         C  0.48521209  0.24037380  0.46771714     0.05800
C47         C  0.47798671  0.23789088  0.01394148    -0.10400
C48         C  0.48373240  0.20393432  0.03922475     0.03300
C49         C  0.48972455  0.16919483  0.01575310    -0.08900
C50         C  0.47727453  0.16167748  0.46996038     0.05800
C51         C  0.48201452  0.20068160  0.44585685    -0.08300
H52         H  0.47357143  0.26552694  0.02965887     0.11400
H53         H  0.49746990  0.14420019  0.03231022     0.08900
H54         H  0.48281947  0.19997682  0.41001550     0.08700
O55         O  0.37290356  0.00860545  0.26395228    -0.85500
C56         C  0.11824146  0.11330682  0.37959004     1.14500
O57         O  0.43096070  0.47115466  0.31461753    -1.33300
O58         O  0.08573897  0.12112528  0.26585670    -0.87000
O59         O  0.33358757  0.42824401  0.26577923    -0.87700
O60         O  0.43288633  0.42255215  0.22201121    -0.76500
O61         O  0.47918988  0.06606389  0.27314027    -0.98600
C62         C  0.06990319  0.47539533  0.23376443     1.24600
O63         O  0.48342779  0.42353062  0.31461231    -1.33500
Mn64       Mn  0.48187273  0.47283597  0.36230358     1.82100
O65         O  0.03215684  0.47425373  0.22182201    -0.75600
O66         O  0.12697820  0.08207635  0.26411021    -0.85000
C67         C  0.07028612  0.47638611  0.39529086     1.15600
C68         C  0.11826186  0.11414012  0.24999611     1.10400
O69         O  0.43336828  0.42236322  0.40739884    -0.76500
O70         O  0.03115368  0.02372444  0.31459558    -1.30200
O71         O  0.38910514  0.37662623  0.35613288    -0.95700
C72         C  0.48634653  0.33632880  0.24982475     1.09100
Mn73       Mn  0.10017380  0.02980397  0.31421326     1.48600
O74         O  0.44562240  0.32750836  0.26422663    -0.84900
Mn75       Mn  0.36389648  0.40582325  0.31510837     1.49600
O76         O  0.37206443  0.00893484  0.36351817    -0.88800
C77         C  0.47956168  0.05838060  0.23383625     1.22300
C78         C  0.34115808  0.46857339  0.37938830     1.14300
Mn79       Mn  0.48185226  0.47280934  0.26693502     1.81000
O80         O  0.07806757  0.47625885  0.35597803    -0.94000
Mn81       Mn  0.42495504  0.03410461  0.31416486     1.49300
C82         C  0.34078387  0.46782262  0.24984792     1.10800
Mn83       Mn  0.04869336  0.42182564  0.31487996     1.49900
C84         C  0.48611052  0.33646001  0.37955960     1.13800
O85         O  0.38849392  0.37671388  0.27324097    -0.99800
O86         O  0.12779150  0.08251381  0.36370795    -0.89400
C87         C  0.39620375  0.38484679  0.23393683     1.25000
O88         O  0.07784869  0.47567216  0.27308106    -1.00100
O89         O  0.08467188  0.11962454  0.36538549    -0.87500
O90         O  0.02595170  0.36992759  0.36507833    -0.87200
O91         O  0.33486559  0.42865483  0.36530050    -0.87200
Mn92       Mn  0.03288752  0.09071354  0.31508359     1.47900
O93         O  0.03239320  0.47484293  0.40727824    -0.75600
C94         C  0.39700255  0.38442344  0.39542892     1.18100
O95         O  0.48051291  0.02169584  0.22191973    -0.74400
O96         O  0.47990733  0.02138056  0.40735625    -0.74000
Mn97       Mn  0.42040361  0.35446357  0.31436901     1.51100
O98         O  0.02599031  0.36904319  0.26544642    -0.86300
O99         O  0.47837530  0.06551503  0.35602185    -0.93900
O100        O  0.44564194  0.32695419  0.36392533    -0.88900
C101        C  0.47824880  0.05766772  0.39533382     1.15900
C102        C  0.47589556  0.12166504  0.44747227    -0.10600
C103        C  0.47652497  0.09033693  0.42630393    -0.12200
C104        C  0.48699216  0.27869711  0.44137819    -0.10600
C105        C  0.48691163  0.30668978  0.41475965    -0.12200
C106        C  0.47850423  0.09129979  0.20268305    -0.10600
C107        C  0.47816499  0.12263035  0.18122552    -0.12200
C108        C  0.48772829  0.30677165  0.21463902    -0.10600
C109        C  0.48843752  0.27921871  0.18783468    -0.12200
C110        C  0.31056681  0.46803865  0.41438063    -0.10600
C111        C  0.28258329  0.46825045  0.44088278    -0.12200
C112        C  0.10465677  0.47824807  0.42636715    -0.10600
C113        C  0.13659732  0.47903879  0.44770289    -0.12200
C114        C  0.30991007  0.46636072  0.21464508    -0.10600
C115        C  0.28183274  0.46603242  0.18788585    -0.12200
C116        C  0.13611369  0.47746142  0.18139359    -0.10600
C117        C  0.10415136  0.47677968  0.20268722    -0.12200
C118        C  0.33310081  0.31804063  0.44761684    -0.10600
C119        C  0.36438235  0.35006603  0.42644877    -0.12200
C120        C  0.17626952  0.17176771  0.44128087    -0.10600
C121        C  0.14813193  0.14376504  0.41473449    -0.12200
C122        C  0.36325418  0.35094260  0.20276272    -0.10600
C123        C  0.33196439  0.31927969  0.18125509    -0.12200
C124        C  0.14764467  0.14514178  0.21479461    -0.10600
C125        C  0.17509432  0.17334381  0.18789986    -0.12200
C126        C  0.21762287  0.20531301  0.66113395     0.05800
C127        C  0.21675541  0.20351785  0.61463686    -0.10400
C128        C  0.25137038  0.24280169  0.58935930     0.03300
C129        C  0.28614366  0.28357199  0.61275002    -0.08900
C130        C  0.28864487  0.28383776  0.65872140     0.05800
C131        C  0.25420421  0.24504129  0.68292285    -0.08300
H132        H  0.18919863  0.17131147  0.59900102     0.11400
H133        H  0.31181135  0.31601617  0.59615955     0.08900
H134        H  0.25572508  0.24587483  0.71876543     0.08700
C135        C  0.21922953  0.20376865  0.96749368     0.05800
C136        C  0.21277580  0.20744067  0.51411792    -0.10400
C137        C  0.25207573  0.24206391  0.53938497     0.03300
C138        C  0.29285735  0.27679331  0.51598364    -0.08900
C139        C  0.28994866  0.28255659  0.96995398     0.05800
C140        C  0.25614236  0.24331496  0.94579624    -0.08300
H141        H  0.18056005  0.17990871  0.52976331     0.11400
H142        H  0.32531053  0.30245715  0.53256578     0.08900
H143        H  0.25818773  0.24383285  0.90997824     0.08700
C144        C  0.24990762  0.47602348  0.66099866     0.05800
C145        C  0.25148405  0.47681775  0.61446431    -0.10400
C146        C  0.21205827  0.47200068  0.58930252     0.03300
C147        C  0.17132310  0.46579634  0.61283688    -0.08900
C148        C  0.17125973  0.46820100  0.65881160     0.05800
C149        C  0.21026606  0.47290783  0.68288729    -0.08300
H150        H  0.28360839  0.48146105  0.59870389     0.11400
H151        H  0.13876154  0.45876271  0.59632160     0.08900
H152        H  0.20958891  0.47372026  0.71872941     0.08700
C153        C  0.25070520  0.47795768  0.96751953     0.05800
C154        C  0.24712680  0.46895605  0.51386237    -0.10400
C155        C  0.21260369  0.47354881  0.53930191     0.03300
C156        C  0.17784536  0.47968742  0.51605538    -0.08900
C157        C  0.17223423  0.47058868  0.97002804     0.05800
C158        C  0.21107236  0.47511150  0.94582287    -0.08300
H159        H  0.27463648  0.46418355  0.52939068     0.11400
H160        H  0.15220697  0.48635492  0.53279745     0.08900
H161        H  0.21022175  0.47589207  0.90998375     0.08700
C162        C  0.47953340  0.23686158  0.66138663     0.04800
C163        C  0.48300647  0.20040556  0.68300584    -0.10400
C164        C  0.48731415  0.16606254  0.65865624     0.03300
C165        C  0.48917095  0.16853434  0.61265687    -0.08900
C166        C  0.48288009  0.20320349  0.58943198     0.05800
C167        C  0.47825797  0.23770359  0.61488282    -0.08300
H168        H  0.48256907  0.19888223  0.71884742     0.11400
H169        H  0.49588288  0.14293929  0.59588666     0.08900
H170        H  0.47338352  0.26514959  0.59935373     0.08700
C171        C  0.47762154  0.23626963  0.96739121     0.05800
C172        C  0.48605232  0.24199572  0.51425202    -0.10400
C173        C  0.48120531  0.20257742  0.53943739     0.03300
C174        C  0.47489533  0.16178570  0.51593690    -0.08900
C175        C  0.48607074  0.16580332  0.96980868     0.05800
C176        C  0.48044072  0.19949768  0.94566228    -0.08300
H177        H  0.49077844  0.27415565  0.53000292     0.11400
H178        H  0.46783286  0.12923415  0.53249068     0.08900
H179        H  0.47876554  0.19739970  0.90985043     0.08700
O180        O  0.37931908  0.01660320  0.76368294    -0.85500
C181        C  0.12354430  0.10895370  0.87871098     1.14500
O182        O  0.43294420  0.47410723  0.81411666    -1.33300
O183        O  0.09191047  0.11844972  0.76499358    -0.87000
O184        O  0.33638158  0.43629388  0.76478658    -0.87700
O185        O  0.43180243  0.42404057  0.72133897    -0.76500
O186        O  0.48566129  0.06874179  0.77273159    -0.98600
C187        C  0.06711787  0.46894420  0.73343089     1.24600
O188        O  0.48057788  0.42165073  0.81413931    -1.33500
Mn189      Mn  0.48221535  0.47255137  0.86180486     1.82100
O190        O  0.03082999  0.47059756  0.72139281    -0.75600
O191        O  0.12903403  0.07534121  0.76332541    -0.85000
C192        C  0.06781934  0.47034674  0.89491924     1.15600
C193        C  0.12270733  0.10890251  0.74911729     1.10400
O194        O  0.43193593  0.42358649  0.90674043    -0.76500
O195        O  0.03313726  0.02184332  0.81413696    -1.30200
O196        O  0.38613138  0.37917814  0.85550190    -0.95700
C197        C  0.47801238  0.33181443  0.74939279     1.09100
Mn198      Mn  0.10013378  0.02358327  0.81364974     1.48600
O199        O  0.43809101  0.32554549  0.76345560    -0.84900
Mn200      Mn  0.36388082  0.41107472  0.81435945     1.49600
O201        O  0.37847020  0.01665302  0.86331523    -0.88800
C202        C  0.48580818  0.06095108  0.73342178     1.22300
C203        C  0.34573359  0.47700473  0.87891389     1.14300
Mn204      Mn  0.48226317  0.47255163  0.76643549     1.81000
O205        O  0.07548717  0.46992202  0.85561774    -0.94000
Mn206      Mn  0.43123592  0.03936694  0.81385624     1.49300
C207        C  0.34588060  0.47676382  0.74917170     1.10800
Mn208      Mn  0.04353302  0.41565302  0.81461713     1.49900
C209        C  0.47724785  0.33147447  0.87892979     1.13800
O210        O  0.38606329  0.37978480  0.77260748    -0.99800
O211        O  0.13054314  0.07644418  0.86285016    -0.89400
C212        C  0.39386348  0.38767446  0.73330979     1.25000
O213        O  0.07494148  0.46905884  0.77274429    -1.00100
O214        O  0.09148735  0.11767536  0.86458656    -0.87500
O215        O  0.01803593  0.36362366  0.86485234    -0.87200
O216        O  0.33689849  0.43628677  0.86448706    -0.87200
Mn217      Mn  0.03921242  0.09085974  0.81449049     1.47900
O218        O  0.03111534  0.47126687  0.90682875    -0.75600
C219        C  0.39424352  0.38688564  0.89480891     1.18100
O220        O  0.48427227  0.02305914  0.72145054    -0.74400
O221        O  0.48367596  0.02287165  0.90689665    -0.74000
Mn222      Mn  0.41525332  0.35458096  0.81364353     1.51100
O223        O  0.01837338  0.36272215  0.76527811    -0.86300
O224        O  0.48510556  0.06855957  0.85563325    -0.93900
O225        O  0.43766899  0.32426487  0.86297746    -0.88900
C226        C  0.48486670  0.06063627  0.89495013     1.15900
C227        C  0.48715480  0.12692928  0.94734611    -0.10600
C228        C  0.48638780  0.09494349  0.92602829    -0.12200
C229        C  0.47548904  0.27250486  0.94086191    -0.10600
C230        C  0.47578615  0.30057976  0.91411630    -0.12200
C231        C  0.48775359  0.09534360  0.70232891    -0.10600
C232        C  0.48860197  0.12730784  0.68099065    -0.12200
C233        C  0.47747399  0.30119977  0.71440697    -0.10600
C234        C  0.47766020  0.27320591  0.68789306    -0.12200
C235        C  0.31616701  0.47837910  0.91409810    -0.10600
C236        C  0.28862274  0.47911402  0.94090004    -0.12200
C237        C  0.10079961  0.46942489  0.92607843    -0.10600
C238        C  0.13216571  0.46914888  0.94752777    -0.12200
C239        C  0.31614833  0.47757857  0.71394891    -0.10600
C240        C  0.28820086  0.47771721  0.68731488    -0.12200
C241        C  0.13124166  0.46678335  0.68132553    -0.10600
C242        C  0.09985822  0.46732090  0.70248156    -0.12200
C243        C  0.32866321  0.32258290  0.94746117    -0.10600
C244        C  0.36032678  0.35390692  0.92597193    -0.12200
C245        C  0.18271151  0.16571445  0.94085003    -0.10600
C246        C  0.15451476  0.13830097  0.91393662    -0.12200
C247        C  0.35950612  0.35505220  0.70228736    -0.10600
C248        C  0.32747072  0.32378678  0.68111160    -0.12200
C249        C  0.15316793  0.13880453  0.71398732    -0.10600
C250        C  0.18116258  0.16698203  0.68746564    -0.12200
C251        C  0.21316743  0.70984404  0.16124970     0.05800
C252        C  0.21187964  0.70820371  0.11467594    -0.10400
C253        C  0.25161345  0.74224527  0.08939740     0.03300
C254        C  0.29226526  0.77717040  0.11286111    -0.08900
C255        C  0.29195633  0.78055733  0.15877019     0.05800
C256        C  0.25271080  0.74677013  0.18293636    -0.08300
H257        H  0.17989210  0.68040220  0.09893816     0.11400
H258        H  0.32505116  0.80221123  0.09633407     0.08900
H259        H  0.25322144  0.74884474  0.21875264     0.08700
C260        C  0.21458127  0.70825851  0.46761512     0.05800
C261        C  0.21761040  0.70247186  0.01406552    -0.10400
C262        C  0.25166074  0.74219972  0.03933832     0.03300
C263        C  0.28658009  0.78285491  0.01586916    -0.08900
C264        C  0.29312377  0.77925972  0.47000991     0.05800
C265        C  0.25432296  0.74481247  0.44581755    -0.08300
H266        H  0.18981407  0.67048362  0.02980647     0.11400
H267        H  0.31162832  0.81563601  0.03239559     0.08900
H268        H  0.25517002  0.74629955  0.40997393     0.08700
C269        C  0.24556624  0.96809962  0.16135183     0.05800
C270        C  0.24725326  0.96857316  0.11480376    -0.10400
C271        C  0.21326569  0.97427211  0.08952156     0.03300
C272        C  0.17845332  0.98014409  0.11300354    -0.08900
C273        C  0.17500546  0.97639141  0.15893872     0.05800
C274        C  0.20870946  0.97077115  0.18308040    -0.08300
H275        H  0.27497370  0.96428980  0.09909392     0.11400
H276        H  0.15344989  0.98789422  0.09647061     0.08900
H277        H  0.20657475  0.96902690  0.21888933     0.08700
C278        C  0.24623265  0.97013064  0.46736017     0.05800
C279        C  0.25239139  0.97858500  0.01410557    -0.10400
C280        C  0.21304553  0.97378046  0.03943975     0.03300
C281        C  0.17239504  0.96804263  0.01600925    -0.08900
C282        C  0.17535733  0.97777776  0.47005555     0.05800
C283        C  0.20972990  0.97350462  0.44572225    -0.08300
H284        H  0.28441093  0.98285014  0.02980138     0.11400
H285        H  0.13990998  0.96106972  0.03259919     0.08900
H286        H  0.20819627  0.97302170  0.40988050     0.08700
C287        C  0.48723459  0.74128245  0.16122198     0.04800
C288        C  0.48420160  0.70157051  0.18292229    -0.10400
C289        C  0.47967418  0.66273119  0.15871746     0.03300
C290        C  0.47726874  0.66295610  0.11272436    -0.08900
C291        C  0.48314641  0.70366437  0.08930383     0.05800
C292        C  0.48799964  0.74302527  0.11463670    -0.08300
H293        H  0.48488001  0.70067740  0.21876353     0.11400
H294        H  0.47030428  0.63048768  0.09610923     0.08900
H295        H  0.49241557  0.77510035  0.09893434     0.08700
C296        C  0.48522482  0.74038076  0.46771752     0.05800
C297        C  0.47798717  0.73789111  0.01394371    -0.10400
C298        C  0.48374141  0.70393987  0.03922699     0.03300
C299        C  0.48973478  0.66920099  0.01575555    -0.08900
C300        C  0.47729522  0.66168748  0.46996014     0.05800
C301        C  0.48203394  0.70069145  0.44585700    -0.08300
H302        H  0.47357080  0.76552650  0.02966126     0.11400
H303        H  0.49748660  0.64421083  0.03231266     0.08900
H304        H  0.48284056  0.69998773  0.41001567     0.08700
O305        O  0.37290556  0.50860746  0.26395483    -0.85500
C306        C  0.11824420  0.61330003  0.37959129     1.14500
O307        O  0.43095990  0.97115513  0.31461601    -1.33300
O308        O  0.08574400  0.62112599  0.26586198    -0.87000
O309        O  0.33358658  0.92824219  0.26577655    -0.87700
O310        O  0.43288970  0.92255414  0.22201030    -0.76500
O311        O  0.47919382  0.56606530  0.27314201    -0.98600
C312        C  0.06990776  0.97539994  0.23376689     1.24600
O313        O  0.48342956  0.92353371  0.31461301    -1.33500
Mn314      Mn  0.48187172  0.97283814  0.36230332     1.82100
O315        O  0.03216087  0.97425671  0.22182364    -0.75600
O316        O  0.12697780  0.58207180  0.26410826    -0.85000
C317        C  0.07028555  0.97639214  0.39529320     1.15600
C318        C  0.11826451  0.61413902  0.24999825     1.10400
O319        O  0.43336701  0.92236508  0.40739747    -0.76500
O320        O  0.03115419  0.52372177  0.31459568    -1.30200
O321        O  0.38910571  0.87662766  0.35613077    -0.95700
C322        C  0.48635349  0.83633492  0.24982606     1.09100
Mn323      Mn  0.10017343  0.52979896  0.31421094     1.48600
O324        O  0.44562796  0.82751344  0.26422521    -0.84900
Mn325      Mn  0.36389612  0.90582314  0.31510620     1.49600
O326        O  0.37206842  0.50893667  0.36352055    -0.88800
C327        C  0.47956610  0.55838331  0.23383783     1.22300
C328        C  0.34115430  0.96857140  0.37938579     1.14300
Mn329      Mn  0.48185396  0.97281123  0.26693507     1.81000
O330        O  0.07806753  0.97626439  0.35598068    -0.94000
Mn331      Mn  0.42495835  0.53410565  0.31416674     1.49300
C332        C  0.34078283  0.96782056  0.24984493     1.10800
Mn333      Mn  0.04869603  0.92183065  0.31488323     1.49900
C334        C  0.48611182  0.83646329  0.37956105     1.13800
O335        O  0.38849565  0.87671588  0.27323912    -0.99800
O336        O  0.12779466  0.58250863  0.36370583    -0.89400
C337        C  0.39620540  0.88485003  0.23393513     1.25000
O338        O  0.07785259  0.97567708  0.27308378    -1.00100
O339        O  0.08467354  0.61961764  0.36538998    -0.87500
O340        O  0.02595281  0.86993235  0.36508172    -0.87200
O341        O  0.33486290  0.92865314  0.36529813    -0.87200
Mn342      Mn  0.03289070  0.59071205  0.31508714     1.47900
O343        O  0.03239147  0.97484694  0.40727969    -0.75600
C344        C  0.39700161  0.88442557  0.39542682     1.18100
O345        O  0.48051250  0.52169615  0.22192043    -0.74400
O346        O  0.47991147  0.52138010  0.40735749    -0.74000
Mn347      Mn  0.42040604  0.85446610  0.31436757     1.51100
O348        O  0.02599589  0.86904860  0.26545032    -0.86300
O349        O  0.47837946  0.56551428  0.35602305    -0.93900
O350        O  0.44564352  0.82695577  0.36392443    -0.88900
C351        C  0.47825447  0.55766818  0.39533504     1.15900
C352        C  0.47591448  0.62167400  0.44747192    -0.10600
C353        C  0.47653801  0.59034203  0.42630469    -0.12200
C354        C  0.48699833  0.77870140  0.44137870    -0.10600
C355        C  0.48691340  0.80669248  0.41476066    -0.12200
C356        C  0.47851667  0.59130792  0.20268567    -0.10600
C357        C  0.47818391  0.62264250  0.18122907    -0.12200
C358        C  0.48773919  0.80678024  0.21463996    -0.10600
C359        C  0.48845377  0.77923022  0.18783541    -0.12200
C360        C  0.31056224  0.96803645  0.41437771    -0.10600
C361        C  0.28257932  0.96824986  0.44087976    -0.12200
C362        C  0.10465729  0.97825736  0.42636969    -0.10600
C363        C  0.13659933  0.97904951  0.44770392    -0.12200
C364        C  0.30991003  0.96635860  0.21464143    -0.10600
C365        C  0.28183352  0.96603173  0.18788229    -0.12200
C366        C  0.13611900  0.97746849  0.18139456    -0.10600
C367        C  0.10415725  0.97678613  0.20268989    -0.12200
C368        C  0.33309430  0.81804744  0.44761329    -0.10600
C369        C  0.36437824  0.85007080  0.42644588    -0.12200
C370        C  0.17627242  0.67176316  0.44128028    -0.10600
C371        C  0.14813567  0.64375765  0.41473527    -0.12200
C372        C  0.36325249  0.85094986  0.20276038    -0.10600
C373        C  0.33196018  0.81928908  0.18125297    -0.12200
C374        C  0.14764760  0.64514228  0.21479752    -0.10600
C375        C  0.17509580  0.67334565  0.18790264    -0.12200
C376        C  0.21761938  0.70531726  0.66113140     0.05800
C377        C  0.21675215  0.70352331  0.61463437    -0.10400
C378        C  0.25136787  0.74280720  0.58935722     0.03300
C379        C  0.28614228  0.78357614  0.61274880    -0.08900
C380        C  0.28864292  0.78384074  0.65872015     0.05800
C381        C  0.25420115  0.74504449  0.68292098    -0.08300
H382        H  0.18919452  0.67131750  0.59899862     0.11400
H383        H  0.31181150  0.81602032  0.59615967     0.08900
H384        H  0.25572174  0.74587721  0.71876357     0.08700
C385        C  0.21922931  0.70377157  0.96749336     0.05800
C386        C  0.21277564  0.70744238  0.51411592    -0.10400
C387        C  0.25207265  0.74207034  0.53938268     0.03300
C388        C  0.29285115  0.77680380  0.51598063    -0.08900
C389        C  0.28994303  0.78256322  0.96995491     0.05800
C390        C  0.25614167  0.74331899  0.94579678    -0.08300
H391        H  0.18056207  0.67990676  0.52976109     0.11400
H392        H  0.32530284  0.80247210  0.53256160     0.08900
H393        H  0.25819015  0.74383594  0.90997901     0.08700
C394        C  0.24990947  0.97602666  0.66099606     0.05800
C395        C  0.25148412  0.97681963  0.61446168    -0.10400
C396        C  0.21205745  0.97200181  0.58930095     0.03300
C397        C  0.17132295  0.96579807  0.61283625    -0.08900
C398        C  0.17126107  0.96820348  0.65881109     0.05800
C399        C  0.21026843  0.97291119  0.68288566    -0.08300
H400        H  0.28360806  0.98146293  0.59870023     0.11400
H401        H  0.13876103  0.95876419  0.59632152     0.08900
H402        H  0.20959243  0.97372424  0.71872778     0.08700
C403        C  0.25070572  0.97795916  0.96751794     0.05800
C404        C  0.24712325  0.96895479  0.51386001    -0.10400
C405        C  0.21260217  0.97355017  0.53930042     0.03300
C406        C  0.17784599  0.97969290  0.51605498    -0.08900
C407        C  0.17223381  0.97058795  0.97002700     0.05800
C408        C  0.21107184  0.97511093  0.94582147    -0.08300
H409        H  0.27463031  0.96417763  0.52938779     0.11400
H410        H  0.15220842  0.98636086  0.53279816     0.08900
H411        H  0.21022052  0.97589032  0.90998233     0.08700
C412        C  0.47952841  0.73685782  0.66138720     0.04800
C413        C  0.48300274  0.70040249  0.68300616    -0.10400
C414        C  0.48731678  0.66606336  0.65865650     0.03300
C415        C  0.48917883  0.66853840  0.61265736    -0.08900
C416        C  0.48288618  0.70320637  0.58943233     0.05800
C417        C  0.47825719  0.73770238  0.61488325    -0.08300
H418        H  0.48256198  0.69887704  0.71884770     0.11400
H419        H  0.49589604  0.64294676  0.59588747     0.08900
H420        H  0.47338154  0.76514760  0.59935405     0.08700
C421        C  0.47761571  0.73626582  0.96739348     0.05800
C422        C  0.48606158  0.74200086  0.51425257    -0.10400
C423        C  0.48121687  0.70258318  0.53943754     0.03300
C424        C  0.47491269  0.66179394  0.51593651    -0.08900
C425        C  0.48607294  0.66580414  0.96981165     0.05800
C426        C  0.48043531  0.69949380  0.94566522    -0.08300
H427        H  0.49078213  0.77415843  0.53000399     0.11400
H428        H  0.46785063  0.62924225  0.53248978     0.08900
H429        H  0.47875507  0.69739245  0.90985358     0.08700
O430        O  0.37931773  0.51660070  0.76368409    -0.85500
C431        C  0.12354703  0.60895649  0.87870853     1.14500
O432        O  0.43294418  0.97410744  0.81411580    -1.33300
O433        O  0.09191007  0.61845231  0.76499380    -0.87000
O434        O  0.33638338  0.93629638  0.76478295    -0.87700
O435        O  0.43180235  0.92404009  0.72133839    -0.76500
O436        O  0.48565994  0.56874202  0.77273267    -0.98600
C437        C  0.06711817  0.96894251  0.73343296     1.24600
O438        O  0.48057527  0.92164835  0.81413940    -1.33500
Mn439      Mn  0.48221443  0.97255012  0.86180456     1.82100
O440        O  0.03083054  0.97059614  0.72139438    -0.75600
O441        O  0.12903237  0.57534282  0.76332033    -0.85000
C442        C  0.06781556  0.97034183  0.89492076     1.15600
C443        C  0.12270551  0.60890473  0.74911443     1.10400
O444        O  0.43193409  0.92358682  0.90673984    -0.76500
O445        O  0.03313773  0.52184522  0.81413637    -1.30200
O446        O  0.38612809  0.87917863  0.85550172    -0.95700
C447        C  0.47800618  0.83180927  0.74939425     1.09100
Mn448      Mn  0.10013524  0.52358675  0.81364639     1.48600
O449        O  0.43808540  0.82554173  0.76345719    -0.84900
Mn450      Mn  0.36387993  0.91107617  0.81435757     1.49600
O451        O  0.37846808  0.51665061  0.86331603    -0.88800
C452        C  0.48580756  0.56095152  0.73342282     1.22300
C453        C  0.34573415  0.97700733  0.87891185     1.14300
Mn454      Mn  0.48226285  0.97255044  0.76643515     1.81000
O455        O  0.07548324  0.96991711  0.85561940    -0.94000
Mn456      Mn  0.43123446  0.53936593  0.81385735     1.49300
C457        C  0.34588265  0.97676677  0.74916894     1.10800
Mn458      Mn  0.04352921  0.91564856  0.81461845     1.49900
C459        C  0.47724030  0.83146930  0.87893075     1.13800
O460        O  0.38606220  0.87978531  0.77260688    -0.99800
O461        O  0.13054725  0.57644896  0.86284506    -0.89400
C462        C  0.39386293  0.88767459  0.73330919     1.25000
O463        O  0.07494076  0.96905583  0.77274650    -1.00100
O464        O  0.09148755  0.61767614  0.86458721    -0.87500
O465        O  0.01802948  0.86361752  0.86485324    -0.87200
O466        O  0.33689729  0.93628928  0.86448381    -0.87200
Mn467      Mn  0.03921199  0.59086111  0.81449123     1.47900
O468        O  0.03111235  0.97126350  0.90683015    -0.75600
C469        C  0.39424042  0.88688720  0.89480872     1.18100
O470        O  0.48427146  0.52305961  0.72145146    -0.74400
O471        O  0.48367513  0.52287171  0.90689740    -0.74000
Mn472      Mn  0.41524925  0.85457959  0.81364405     1.51100
O473        O  0.01836865  0.86271785  0.76527894    -0.86300
O474        O  0.48510419  0.56856008  0.85563465    -0.93900
O475        O  0.43766208  0.82426156  0.86297853    -0.88900
C476        C  0.48486561  0.56063637  0.89495147     1.15900
C477        C  0.48715612  0.62692945  0.94734934    -0.10600
C478        C  0.48638762  0.59494351  0.92603046    -0.12200
C479        C  0.47547956  0.77249871  0.94086333    -0.10600
C480        C  0.47577689  0.80057350  0.91411729    -0.12200
C481        C  0.48775544  0.59534477  0.70232974    -0.10600
C482        C  0.48860518  0.62730907  0.68099073    -0.12200
C483        C  0.47746637  0.80119380  0.71440856    -0.10600
C484        C  0.47765244  0.77320028  0.68789416    -0.12200
C485        C  0.31616789  0.97838200  0.91409614    -0.10600
C486        C  0.28862364  0.97911653  0.94089832    -0.12200
C487        C  0.10079645  0.96942066  0.92607951    -0.10600
C488        C  0.13216415  0.96914629  0.94752746    -0.12200
C489        C  0.31615131  0.97758247  0.71394549    -0.10600
C490        C  0.28820373  0.97772115  0.68731145    -0.12200
C491        C  0.13124319  0.96678483  0.68132655    -0.10600
C492        C  0.09985962  0.96732091  0.70248375    -0.12200
C493        C  0.32865794  0.82258967  0.94746279    -0.10600
C494        C  0.36032228  0.85391155  0.92597256    -0.12200
C495        C  0.18271417  0.66571625  0.94084839    -0.10600
C496        C  0.15451831  0.63830322  0.91393411    -0.12200
C497        C  0.35950528  0.85505310  0.70228675    -0.10600
C498        C  0.32746941  0.82378846  0.68111089    -0.12200
C499        C  0.15316451  0.63880727  0.71398380    -0.10600
C500        C  0.18115873  0.66698559  0.68746232    -0.12200
C501        C  0.71316936  0.20984073  0.16124831     0.05800
C502        C  0.71188374  0.20819949  0.11467461    -0.10400
C503        C  0.75162139  0.24223652  0.08939702     0.03300
C504        C  0.79227451  0.27715810  0.11286175    -0.08900
C505        C  0.79196352  0.28054645  0.15877063     0.05800
C506        C  0.75271443  0.24676356  0.18293577    -0.08300
H507        H  0.67989482  0.18040088  0.09893628     0.11400
H508        H  0.82506249  0.30219574  0.09633562     0.08900
H509        H  0.75322324  0.24883928  0.21875194     0.08700
C510        C  0.71458360  0.20825685  0.46761819     0.05800
C511        C  0.71761518  0.20246610  0.01406505    -0.10400
C512        C  0.75167006  0.24219093  0.03933796     0.03300
C513        C  0.78659344  0.28284375  0.01586896    -0.08900
C514        C  0.79313160  0.27925119  0.47001358     0.05800
C515        C  0.75432803  0.24480795  0.44582109    -0.08300
H516        H  0.68981652  0.17047932  0.02980592     0.11400
H517        H  0.81164622  0.31562271  0.03239567     0.08900
H518        H  0.75517437  0.24629690  0.40997751     0.08700
C519        C  0.74556323  0.46809620  0.16135333     0.05800
C520        C  0.74725333  0.46857349  0.11480513    -0.10400
C521        C  0.71326734  0.47427452  0.08952215     0.03300
C522        C  0.67845417  0.48014561  0.11300339    -0.08900
C523        C  0.67500235  0.47638784  0.15893802     0.05800
C524        C  0.70870427  0.47076501  0.18308064    -0.08300
H525        H  0.77497507  0.46429188  0.09909580     0.11400
H526        H  0.65345286  0.48789848  0.09647030     0.08900
H527        H  0.70656672  0.46901751  0.21888942     0.08700
C528        C  0.74623338  0.47012644  0.46736250     0.05800
C529        C  0.75239504  0.47859015  0.01410655    -0.10400
C530        C  0.71304898  0.47378576  0.03944024     0.03300
C531        C  0.67239942  0.46804989  0.01600911    -0.08900
C532        C  0.67535589  0.47776958  0.47005591     0.05800
C533        C  0.70972794  0.47349472  0.44572375    -0.08300
H534        H  0.78441329  0.48285259  0.02980285     0.11400
H535        H  0.63991369  0.46107581  0.03259837     0.08900
H536        H  0.70819275  0.47300773  0.40988197     0.08700
C537        C  0.98721368  0.24126892  0.16122150     0.04800
C538        C  0.98417699  0.20155496  0.18292084    -0.10400
C539        C  0.97965179  0.16271729  0.15871486     0.03300
C540        C  0.97725100  0.16294509  0.11272164    -0.08900
C541        C  0.98313136  0.20365497  0.08930224     0.05800
C542        C  0.98798258  0.24301439  0.11463633    -0.08300
H543        H  0.98485330  0.20066005  0.21876208     0.11400
H544        H  0.97028930  0.13047798  0.09610568     0.08900
H545        H  0.99240165  0.27509113  0.09893517     0.08700
C546        C  0.98521348  0.24037465  0.46771829     0.05800
C547        C  0.97798741  0.23789132  0.01394246    -0.10400
C548        C  0.98373382  0.20393508  0.03922540     0.03300
C549        C  0.98972703  0.16919633  0.01575346    -0.08900
C550        C  0.97727638  0.16167842  0.46996030     0.05800
C551        C  0.98201653  0.20068300  0.44585742    -0.08300
H552        H  0.97357054  0.26552628  0.02966011     0.11400
H553        H  0.99747222  0.14420149  0.03231052     0.08900
H554        H  0.98282193  0.19997895  0.41001605     0.08700
O555        O  0.87290089  0.00860300  0.26395174    -0.85500
C556        C  0.61824227  0.11330632  0.37959158     1.14500
O557        O  0.93095967  0.47115359  0.31461752    -1.33300
O558        O  0.58574094  0.12112784  0.26585978    -0.87000
O559        O  0.83358599  0.42824107  0.26577880    -0.87700
O560        O  0.93288636  0.42255132  0.22201153    -0.76500
O561        O  0.97918791  0.06606203  0.27313919    -0.98600
C562        C  0.56990324  0.47539496  0.23376373     1.24600
O563        O  0.98342768  0.42353052  0.31461268    -1.33500
Mn564      Mn  0.98187211  0.47283571  0.36230382     1.82100
O565        O  0.53215682  0.47425343  0.22182173    -0.75600
O566        O  0.62697826  0.08207705  0.26410986    -0.85000
C567        C  0.57028643  0.47638596  0.39529036     1.15600
C568        C  0.61826281  0.11414211  0.24999761     1.10400
O569        O  0.93336806  0.42236305  0.40739912    -0.76500
O570        O  0.53115444  0.02372494  0.31459596    -1.30200
O571        O  0.88910526  0.37662588  0.35613310    -0.95700
C572        C  0.98634724  0.33632887  0.24982571     1.09100
Mn573      Mn  0.60017447  0.02980434  0.31421288     1.48600
O574        O  0.94562311  0.32750773  0.26422817    -0.84900
Mn575      Mn  0.86389579  0.40582160  0.31510818     1.49600
O576        O  0.87206285  0.00893308  0.36351767    -0.88800
C577        C  0.97955970  0.05837881  0.23383524     1.22300
C578        C  0.84115580  0.46857084  0.37938774     1.14300
Mn579      Mn  0.98185174  0.47280899  0.26693519     1.81000
O580        O  0.57806781  0.47625839  0.35597753    -0.94000
Mn581      Mn  0.92495331  0.03410313  0.31416401     1.49300
C582        C  0.84078165  0.46781942  0.24984742     1.10800
Mn583      Mn  0.54869320  0.42182517  0.31487941     1.49900
C584        C  0.98611148  0.33646090  0.37956099     1.13800
O585        O  0.88849382  0.37671241  0.27324101    -0.99800
O586        O  0.62779273  0.08251426  0.36370776    -0.89400
C587        C  0.89620417  0.38484548  0.23393688     1.25000
O588        O  0.57784910  0.47567165  0.27308029    -1.00100
O589        O  0.58467210  0.11962382  0.36538840    -0.87500
O590        O  0.52595092  0.36992712  0.36507770    -0.87200
O591        O  0.83486397  0.42865251  0.36530002    -0.87200
Mn592      Mn  0.53288873  0.09071438  0.31508562     1.47900
O593        O  0.53239349  0.47484266  0.40727776    -0.75600
C594        C  0.89700252  0.38442322  0.39542913     1.18100
O595        O  0.98051159  0.02169438  0.22191880    -0.74400
O596        O  0.97990700  0.02138096  0.40735525    -0.74000
Mn597      Mn  0.92040395  0.35446316  0.31436985     1.51100
O598        O  0.52598964  0.36904246  0.26544605    -0.86300
O599        O  0.97837441  0.06551481  0.35602044    -0.93900
O600        O  0.94564274  0.32695501  0.36392704    -0.88900
C601        C  0.97824856  0.05766810  0.39533249     1.15900
C602        C  0.97589719  0.12166625  0.44747136    -0.10600
C603        C  0.97652577  0.09033801  0.42630245    -0.12200
C604        C  0.98699370  0.27869840  0.44137983    -0.10600
C605        C  0.98691300  0.30669111  0.41476136    -0.12200
C606        C  0.97850273  0.09129834  0.20268226    -0.10600
C607        C  0.97816422  0.12262966  0.18122544    -0.12200
C608        C  0.98772895  0.30677171  0.21463999    -0.10600
C609        C  0.98843797  0.27921867  0.18783564    -0.12200
C610        C  0.81056441  0.46803565  0.41438018    -0.10600
C611        C  0.78258120  0.46824760  0.44088259    -0.12200
C612        C  0.60465731  0.47824882  0.42636675    -0.10600
C613        C  0.63659789  0.47904008  0.44770280    -0.12200
C614        C  0.80990738  0.46635687  0.21464461    -0.10600
C615        C  0.78183025  0.46602885  0.18788522    -0.12200
C616        C  0.63611414  0.47746306  0.18139199    -0.10600
C617        C  0.60415145  0.47678019  0.20268598    -0.12200
C618        C  0.83310170  0.31804015  0.44761717    -0.10600
C619        C  0.86438272  0.35006570  0.42644893    -0.12200
C620        C  0.67627108  0.17176643  0.44128249    -0.10600
C621        C  0.64813305  0.14376386  0.41473630    -0.12200
C622        C  0.86325573  0.35094090  0.20276234    -0.10600
C623        C  0.83196672  0.31927786  0.18125422    -0.12200
C624        C  0.64764505  0.14514423  0.21479602    -0.10600
C625        C  0.67509424  0.17334580  0.18790067    -0.12200
C626        C  0.71762358  0.20531316  0.66113470     0.05800
C627        C  0.71675675  0.20351794  0.61463770    -0.10400
C628        C  0.75137354  0.24280065  0.58936026     0.03300
C629        C  0.78614831  0.28356982  0.61275118    -0.08900
C630        C  0.78864852  0.28383550  0.65872255     0.05800
C631        C  0.75420616  0.24504016  0.68292388    -0.08300
H632        H  0.68919868  0.17131234  0.59900196     0.11400
H633        H  0.81181759  0.31601344  0.59616115     0.08900
H634        H  0.75572639  0.24587385  0.71876647     0.08700
C635        C  0.71923204  0.20376701  0.96749293     0.05800
C636        C  0.71277849  0.20743954  0.51411911    -0.10400
C637        C  0.75207852  0.24206306  0.53938592     0.03300
C638        C  0.79285955  0.27679290  0.51598421    -0.08900
C639        C  0.78995317  0.28255358  0.96995432     0.05800
C640        C  0.75614644  0.24331268  0.94579610    -0.08300
H641        H  0.68056300  0.17990728  0.52976450     0.11400
H642        H  0.82531277  0.30245740  0.53256577     0.08900
H643        H  0.75819231  0.24383097  0.90997815     0.08700
C644        C  0.74991082  0.47602911  0.66099856     0.05800
C645        C  0.75148634  0.47682193  0.61446417    -0.10400
C646        C  0.71206082  0.47200600  0.58930264     0.03300
C647        C  0.67132695  0.46580461  0.61283736    -0.08900
C648        C  0.67126460  0.46821089  0.65881203     0.05800
C649        C  0.71027078  0.47291679  0.68288744    -0.08300
H650        H  0.78360954  0.48146255  0.59870350     0.11400
H651        H  0.63876533  0.45877133  0.59632248     0.08900
H652        H  0.70959421  0.47372989  0.71872954     0.08700
C653        C  0.75071076  0.47796667  0.96751885     0.05800
C654        C  0.74712644  0.46895609  0.51386242    -0.10400
C655        C  0.71260482  0.47355142  0.53930194     0.03300
C656        C  0.67784678  0.47969035  0.51605524    -0.08900
C657        C  0.67224001  0.47059844  0.97002695     0.05800
C658        C  0.71107865  0.47512209  0.94582201    -0.08300
H659        H  0.77463598  0.46418339  0.52939077     0.11400
H660        H  0.65220951  0.48635968  0.53279706     0.08900
H661        H  0.71022855  0.47590347  0.90998291     0.08700
C662        C  0.97953451  0.23686051  0.66138762     0.04800
C663        C  0.98301020  0.20040577  0.68300648    -0.10400
C664        C  0.98731752  0.16606276  0.65865644     0.03300
C665        C  0.98917215  0.16853366  0.61265703    -0.08900
C666        C  0.98287998  0.20320218  0.58943259     0.05800
C667        C  0.97825717  0.23770164  0.61488384    -0.08300
H668        H  0.98257436  0.19888300  0.71884806     0.11400
H669        H  0.99588368  0.14293854  0.59588643     0.08900
H670        H  0.97338086  0.26514665  0.59935499     0.08700
C671        C  0.97762332  0.23627102  0.96739222     0.05800
C672        C  0.98605267  0.24199547  0.51425321    -0.10400
C673        C  0.98120548  0.20257671  0.53943798     0.03300
C674        C  0.97489645  0.16178566  0.51593686    -0.08900
C675        C  0.98607448  0.16580587  0.96980887     0.05800
C676        C  0.98044445  0.19950041  0.94566288    -0.08300
H677        H  0.99077827  0.27415492  0.53000461     0.11400
H678        H  0.96783405  0.12923389  0.53249020     0.08900
H679        H  0.97877017  0.19740330  0.90985094     0.08700
O680        O  0.87932083  0.01660323  0.76368158    -0.85500
C681        C  0.62354454  0.10895441  0.87870949     1.14500
O682        O  0.93294554  0.47410787  0.81411622    -1.33300
O683        O  0.59190876  0.11845097  0.76499441    -0.87000
O684        O  0.83638207  0.43629415  0.76478707    -0.87700
O685        O  0.93180346  0.42404006  0.72133937    -0.76500
O686        O  0.98566328  0.06874156  0.77273058    -0.98600
C687        C  0.56711828  0.46894694  0.73343066     1.24600
O688        O  0.98057815  0.42165036  0.81413980    -1.33500
Mn689      Mn  0.98221624  0.47255211  0.86180466     1.82100
O690        O  0.53082986  0.47059938  0.72139255    -0.75600
O691        O  0.62903101  0.07534131  0.76332260    -0.85000
C692        C  0.56782030  0.47034841  0.89491882     1.15600
C693        C  0.62270468  0.10890340  0.74911629     1.10400
O694        O  0.93193699  0.42358779  0.90674068    -0.76500
O695        O  0.53313623  0.02184334  0.81413662    -1.30200
O696        O  0.88613242  0.37917867  0.85550258    -0.95700
C697        C  0.97801165  0.33181281  0.74939370     1.09100
Mn698      Mn  0.60013316  0.02358415  0.81364751     1.48600
O699        O  0.93809037  0.32554444  0.76345621    -0.84900
Mn700      Mn  0.86388197  0.41107553  0.81436001     1.49600
O701        O  0.87847242  0.01665508  0.86331363    -0.88800
C702        C  0.98581050  0.06095059  0.73342095     1.22300
C703        C  0.84573588  0.47700733  0.87891299     1.14300
Mn704      Mn  0.98226414  0.47255117  0.76643544     1.81000
O705        O  0.57548768  0.46992351  0.85561728    -0.94000
Mn706      Mn  0.93123778  0.03936777  0.81385493     1.49300
C707        C  0.84588199  0.47676391  0.74917088     1.10800
Mn708      Mn  0.54353342  0.41565438  0.81461644     1.49900
C709        C  0.97724717  0.33147417  0.87893094     1.13800
O710        O  0.88606411  0.37978510  0.77260819    -0.99800
O711        O  0.63054403  0.07644597  0.86284698    -0.89400
C712        C  0.89386459  0.38767419  0.73331050     1.25000
O713        O  0.57494131  0.46906074  0.77274406    -1.00100
O714        O  0.59148590  0.11767473  0.86458728    -0.87500
O715        O  0.51803662  0.36362422  0.86485123    -0.87200
O716        O  0.83690062  0.43628874  0.86448765    -0.87200
Mn717      Mn  0.53921066  0.09085949  0.81449140     1.47900
O718        O  0.53111530  0.47126654  0.90682864    -0.75600
C719        C  0.89424516  0.38688611  0.89480953     1.18100
O720        O  0.98427402  0.02305826  0.72145018    -0.74400
O721        O  0.98367706  0.02287348  0.90689614    -0.74000
Mn722      Mn  0.91525343  0.35458074  0.81364418     1.51100
O723        O  0.51837413  0.36272403  0.76527699    -0.86300
O724        O  0.98510738  0.06856112  0.85563212    -0.93900
O725        O  0.93766842  0.32426430  0.86297823    -0.88900
C726        C  0.98486861  0.06063835  0.89494913     1.15900
C727        C  0.98715896  0.12693239  0.94734553    -0.10600
C728        C  0.98639115  0.09494657  0.92602704    -0.12200
C729        C  0.97548935  0.27250563  0.94086337    -0.10600
C730        C  0.97578554  0.30058005  0.91411782    -0.12200
C731        C  0.98775731  0.09534351  0.70232794    -0.10600
C732        C  0.98860613  0.12730827  0.68099029    -0.12200
C733        C  0.97747331  0.30119789  0.71440804    -0.10600
C734        C  0.97766019  0.27320419  0.68789427    -0.12200
C735        C  0.81617027  0.47838344  0.91409733    -0.10600
C736        C  0.78862733  0.47912077  0.94089941    -0.12200
C737        C  0.60080294  0.46943028  0.92607761    -0.10600
C738        C  0.63217082  0.46915726  0.94752659    -0.12200
C739        C  0.81614951  0.47757872  0.71394822    -0.10600
C740        C  0.78820273  0.47771942  0.68731451    -0.12200
C741        C  0.63124620  0.46679259  0.68132612    -0.10600
C742        C  0.59986089  0.46732731  0.70248157    -0.12200
C743        C  0.82866770  0.32258043  0.94746194    -0.10600
C744        C  0.86033026  0.35390578  0.92597287    -0.12200
C745        C  0.68271328  0.16571422  0.94084844    -0.10600
C746        C  0.65451599  0.13830168  0.91393475    -0.12200
C747        C  0.85950839  0.35505076  0.70228841    -0.10600
C748        C  0.82747394  0.32378436  0.68111290    -0.12200
C749        C  0.65316517  0.13880608  0.71398668    -0.10600
C750        C  0.68116121  0.16698342  0.68746580    -0.12200
C751        C  0.71317073  0.70984276  0.16124966     0.05800
C752        C  0.71188273  0.70820206  0.11467588    -0.10400
C753        C  0.75161702  0.74224265  0.08939718     0.03300
C754        C  0.79226977  0.77716637  0.11286074    -0.08900
C755        C  0.79196078  0.78055411  0.15876966     0.05800
C756        C  0.75271470  0.74676828  0.18293603    -0.08300
H757        H  0.67989462  0.68040131  0.09893828     0.11400
H758        H  0.82505621  0.80220603  0.09633367     0.08900
H759        H  0.75322524  0.74884367  0.21875227     0.08700
C760        C  0.71458151  0.70825619  0.46761628     0.05800
C761        C  0.71761156  0.70247187  0.01406491    -0.10400
C762        C  0.75166362  0.74219817  0.03933817     0.03300
C763        C  0.78658398  0.78285316  0.01586957    -0.08900
C764        C  0.79312269  0.77925913  0.47001004     0.05800
C765        C  0.75432212  0.74481088  0.44581822    -0.08300
H766        H  0.68981441  0.67048390  0.02980552     0.11400
H767        H  0.81163341  0.81563345  0.03239641     0.08900
H768        H  0.75516848  0.74629787  0.40997458     0.08700
C769        C  0.74556346  0.96809485  0.16135046     0.05800
C770        C  0.74725310  0.96857251  0.11480246    -0.10400
C771        C  0.71326812  0.97427563  0.08952030     0.03300
C772        C  0.67845564  0.98014753  0.11300217    -0.08900
C773        C  0.67500440  0.97638969  0.15893705     0.05800
C774        C  0.70870582  0.97076515  0.18307869    -0.08300
H775        H  0.77497380  0.96428954  0.09909261     0.11400
H776        H  0.65345471  0.98790119  0.09646921     0.08900
H777        H  0.70656910  0.96901772  0.21888750     0.08700
C778        C  0.74623118  0.97012880  0.46735955     0.05800
C779        C  0.75239696  0.97859345  0.01410503    -0.10400
C780        C  0.71305019  0.97378757  0.03943853     0.03300
C781        C  0.67240017  0.96805014  0.01600746    -0.08900
C782        C  0.67535841  0.97778016  0.47005554     0.05800
C783        C  0.70972880  0.97350365  0.44572201    -0.08300
H784        H  0.78441604  0.98285812  0.02980146     0.11400
H785        H  0.63991452  0.96107604  0.03259713     0.08900
H786        H  0.70819390  0.97301915  0.40988023     0.08700
C787        C  0.98723485  0.74128307  0.16122269     0.04800
C788        C  0.98420037  0.70157057  0.18292322    -0.10400
C789        C  0.97967313  0.66273126  0.15871846     0.03300
C790        C  0.97726889  0.66295659  0.11272528    -0.08900
C791        C  0.98314729  0.70366509  0.08930473     0.05800
C792        C  0.98800101  0.74302623  0.11463748    -0.08300
H793        H  0.98487772  0.70067715  0.21876447     0.11400
H794        H  0.97030467  0.63048834  0.09611001     0.08900
H795        H  0.99241812  0.77510174  0.09893504     0.08700
C796        C  0.98522448  0.74038055  0.46771880     0.05800
C797        C  0.97798665  0.73789114  0.01394505    -0.10400
C798        C  0.98374199  0.70394042  0.03922795     0.03300
C799        C  0.98973544  0.66920170  0.01575618    -0.08900
C800        C  0.97729438  0.66168695  0.46996092     0.05800
C801        C  0.98203344  0.70069126  0.44585803    -0.08300
H802        H  0.97356983  0.76552612  0.02966283     0.11400
H803        H  0.99748774  0.64421179  0.03231320     0.08900
H804        H  0.98284013  0.69998776  0.41001670     0.08700
O805        O  0.87290313  0.50860454  0.26395422    -0.85500
C806        C  0.61824509  0.61329903  0.37959159     1.14500
O807        O  0.93095904  0.97115416  0.31461549    -1.33300
O808        O  0.58574587  0.62112675  0.26586208    -0.87000
O809        O  0.83358597  0.92823975  0.26577493    -0.87700
O810        O  0.93289030  0.92255316  0.22201020    -0.76500
O811        O  0.97919181  0.56606396  0.27314217    -0.98600
C812        C  0.56990786  0.97539980  0.23376637     1.24600
O813        O  0.98342945  0.92353342  0.31461324    -1.33500
Mn814      Mn  0.98187108  0.97283785  0.36230313     1.82100
O815        O  0.53216088  0.97425671  0.22182353    -0.75600
O816        O  0.62697862  0.58207150  0.26410791    -0.85000
C817        C  0.57028634  0.97639280  0.39529289     1.15600
C818        C  0.61826606  0.61413935  0.24999825     1.10400
O819        O  0.93336596  0.92236501  0.40739749    -0.76500
O820        O  0.53115512  0.52372191  0.31459543    -1.30200
O821        O  0.88910531  0.87662724  0.35613070    -0.95700
C822        C  0.98635416  0.83633524  0.24982669     1.09100
Mn823      Mn  0.60017403  0.52979845  0.31421042     1.48600
O824        O  0.94562870  0.82751302  0.26422662    -0.84900
Mn825      Mn  0.86389558  0.90582172  0.31510524     1.49600
O826        O  0.87206575  0.50893426  0.36351997    -0.88800
C827        C  0.97956427  0.55838237  0.23383798     1.22300
C828        C  0.84115228  0.96856931  0.37938447     1.14300
Mn829      Mn  0.98185354  0.97281057  0.26693484     1.81000
O830        O  0.57806823  0.97626472  0.35598034    -0.94000
Mn831      Mn  0.92495610  0.53410384  0.31416648     1.49300
C832        C  0.84078098  0.96781787  0.24984389     1.10800
Mn833      Mn  0.54869600  0.92183070  0.31488293     1.49900
C834        C  0.98611247  0.83646360  0.37956215     1.13800
O835        O  0.88849613  0.87671471  0.27323894    -0.99800
O836        O  0.62779545  0.58250778  0.36370557    -0.89400
C837        C  0.89620652  0.88484866  0.23393496     1.25000
O838        O  0.57785313  0.97567716  0.27308325    -1.00100
O839        O  0.58467489  0.61961735  0.36539029    -0.87500
O840        O  0.52595227  0.86993273  0.36508162    -0.87200
O841        O  0.83486099  0.92865129  0.36529622    -0.87200
Mn842      Mn  0.53289252  0.59071270  0.31508713     1.47900
O843        O  0.53239214  0.97484725  0.40727944    -0.75600
C844        C  0.89700059  0.88442542  0.39542678     1.18100
O845        O  0.98051139  0.52169561  0.22192040    -0.74400
O846        O  0.97991017  0.52137959  0.40735756    -0.74000
Mn847      Mn  0.92040635  0.85446572  0.31436838     1.51100
O848        O  0.52599520  0.86904793  0.26545024    -0.86300
O849        O  0.97837734  0.56551332  0.35602304    -0.93900
O850        O  0.94564400  0.82695648  0.36392624    -0.88900
C851        C  0.97825253  0.55766733  0.39533508     1.15900
C852        C  0.97591307  0.62167330  0.44747235    -0.10600
C853        C  0.97653612  0.59034121  0.42630482    -0.12200
C854        C  0.98699872  0.77870174  0.44138018    -0.10600
C855        C  0.98691427  0.80669307  0.41476206    -0.12200
C856        C  0.97851439  0.59130707  0.20268619    -0.10600
C857        C  0.97818187  0.62264211  0.18123012    -0.12200
C858        C  0.98773980  0.80678099  0.21464035    -0.10600
C859        C  0.98845441  0.77923111  0.18783578    -0.12200
C860        C  0.81055973  0.96803360  0.41437632    -0.10600
C861        C  0.78257685  0.96824675  0.44087861    -0.12200
C862        C  0.60465841  0.97825924  0.42636955    -0.10600
C863        C  0.63660054  0.97905224  0.44770419    -0.12200
C864        C  0.80990758  0.96635499  0.21464048    -0.10600
C865        C  0.78183045  0.96602679  0.18788128    -0.12200
C866        C  0.63611789  0.97746699  0.18139279    -0.10600
C867        C  0.60415671  0.97678517  0.20268878    -0.12200
C868        C  0.83309241  0.81804736  0.44761294    -0.10600
C869        C  0.86437653  0.85007082  0.42644567    -0.12200
C870        C  0.67627259  0.67176047  0.44128180    -0.10600
C871        C  0.64813609  0.64375552  0.41473632    -0.12200
C872        C  0.86325532  0.85094761  0.20275995    -0.10600
C873        C  0.83196431  0.81928624  0.18125214    -0.12200
C874        C  0.64764969  0.64514281  0.21479787    -0.10600
C875        C  0.67509840  0.67334568  0.18790296    -0.12200
C876        C  0.71761891  0.70531571  0.66113234     0.05800
C877        C  0.71675182  0.70352222  0.61463534    -0.10400
C878        C  0.75137012  0.74280463  0.58935836     0.03300
C879        C  0.78614718  0.78357155  0.61275051    -0.08900
C880        C  0.78864670  0.78383582  0.65872190     0.05800
C881        C  0.75420257  0.74504098  0.68292234    -0.08300
H882        H  0.68919188  0.67131787  0.59899973     0.11400
H883        H  0.81181892  0.81601495  0.59616222     0.08900
H884        H  0.75572250  0.74587352  0.71876500     0.08700
C885        C  0.71922993  0.70377282  0.96749274     0.05800
C886        C  0.71277696  0.70743978  0.51411710    -0.10400
C887        C  0.75207386  0.74206858  0.53938355     0.03300
C888        C  0.79285097  0.77680345  0.51598076    -0.08900
C889        C  0.78994627  0.78256250  0.96995528     0.05800
C890        C  0.75614326  0.74331985  0.94579660    -0.08300
H891        H  0.68056421  0.67990300  0.52976229     0.11400
H892        H  0.82530261  0.80247308  0.53256074     0.08900
H893        H  0.75819127  0.74383772  0.90997874     0.08700
C894        C  0.74991160  0.97603062  0.66099590     0.05800
C895        C  0.75148609  0.97682290  0.61446144    -0.10400
C896        C  0.71205997  0.97200633  0.58930065     0.03300
C897        C  0.67132603  0.96580418  0.61283587    -0.08900
C898        C  0.67126426  0.96821032  0.65881065     0.05800
C899        C  0.71027139  0.97291743  0.68288536    -0.08300
H900        H  0.78360926  0.98146429  0.59869986     0.11400
H901        H  0.63876415  0.95877040  0.59632107     0.08900
H902        H  0.70959544  0.97373082  0.71872747     0.08700
C903        C  0.75071220  0.97796845  0.96751740     0.05800
C904        C  0.74712304  0.96895463  0.51385949    -0.10400
C905        C  0.71260400  0.97355329  0.53930010     0.03300
C906        C  0.67784878  0.97969767  0.51605483    -0.08900
C907        C  0.67223992  0.97059664  0.97002520     0.05800
C908        C  0.71107884  0.97512079  0.94582029    -0.08300
H909        H  0.77462956  0.96417655  0.52938725     0.11400
H910        H  0.65221313  0.98636850  0.53279808     0.08900
H911        H  0.71022815  0.97590051  0.90998114     0.08700
C912        C  0.97952935  0.73685671  0.66138869     0.04800
C913        C  0.98300677  0.70040278  0.68300698    -0.10400
C914        C  0.98732146  0.66606441  0.65865665     0.03300
C915        C  0.98918193  0.66853917  0.61265753    -0.08900
C916        C  0.98288659  0.70320577  0.58943324     0.05800
C917        C  0.97825623  0.73770066  0.61488472    -0.08300
H918        H  0.98256733  0.69887750  0.71884858     0.11400
H919        H  0.99589981  0.64294831  0.59588696     0.08900
H920        H  0.97337813  0.76514452  0.59935584     0.08700
C921        C  0.97761469  0.73626587  0.96739490     0.05800
C922        C  0.98606095  0.74200022  0.51425389    -0.10400
C923        C  0.98121619  0.70258237  0.53943854     0.03300
C924        C  0.97491170  0.66179311  0.51593731    -0.08900
C925        C  0.98607292  0.66580472  0.96981220     0.05800
C926        C  0.98043441  0.69949410  0.94566624    -0.08300
H927        H  0.99078167  0.77415768  0.53000570     0.11400
H928        H  0.96784928  0.62924123  0.53249061     0.08900
H929        H  0.97875382  0.69739292  0.90985460     0.08700
O930        O  0.87932027  0.51660088  0.76368195    -0.85500
C931        C  0.62354569  0.60895797  0.87870856     1.14500
O932        O  0.93294532  0.97410800  0.81411564    -1.33300
O933        O  0.59190696  0.61845310  0.76499471    -0.87000
O934        O  0.83638397  0.93629649  0.76478325    -0.87700
O935        O  0.93180336  0.92403872  0.72133932    -0.76500
O936        O  0.98566281  0.56874227  0.77273126    -0.98600
C937        C  0.56711732  0.96894353  0.73343135     1.24600
O938        O  0.98057573  0.92164827  0.81414053    -1.33500
Mn939      Mn  0.98221501  0.97255101  0.86180490     1.82100
O940        O  0.53082962  0.97059725  0.72139301    -0.75600
O941        O  0.62902983  0.57534415  0.76332024    -0.85000
C942        C  0.56781732  0.97034358  0.89491915     1.15600
C943        C  0.62270226  0.60890569  0.74911470     1.10400
O944        O  0.93193486  0.92358862  0.90674049    -0.76500
O945        O  0.53313645  0.52184545  0.81413684    -1.30200
O946        O  0.88612922  0.87917963  0.85550268    -0.95700
C947        C  0.97800618  0.83180808  0.74939593     1.09100
Mn948      Mn  0.60013455  0.52358833  0.81364624     1.48600
O949        O  0.93808552  0.82554059  0.76345926    -0.84900
Mn950      Mn  0.86388103  0.91107692  0.81435823     1.49600
O951        O  0.87846993  0.51665263  0.86331369    -0.88800
C952        C  0.98581082  0.56095155  0.73342157     1.22300
C953        C  0.84573688  0.97700997  0.87891149     1.14300
Mn954      Mn  0.98226385  0.97254996  0.76643568     1.81000
O955        O  0.57548411  0.96991847  0.85561762    -0.94000
Mn956      Mn  0.93123675  0.53936699  0.81385552     1.49300
C957        C  0.84588364  0.97676674  0.74916846     1.10800
Mn958      Mn  0.54352914  0.91564930  0.81461713     1.49900
C959        C  0.97724013  0.83146953  0.87893257     1.13800
O960        O  0.88606287  0.87978497  0.77260810    -0.99800
O961        O  0.63054647  0.57645091  0.86284475    -0.89400
C962        C  0.89386405  0.88767320  0.73331041     1.25000
O963        O  0.57493972  0.96905643  0.77274487    -1.00100
O964        O  0.59148523  0.61767654  0.86458805    -0.87500
O965        O  0.51802968  0.86361823  0.86485218    -0.87200
O966        O  0.83689948  0.93629135  0.86448444    -0.87200
Mn967      Mn  0.53920944  0.59086084  0.81449239     1.47900
O968        O  0.53111311  0.97126313  0.90682916    -0.75600
C969        C  0.89424182  0.88688832  0.89480960     1.18100
O970        O  0.98427345  0.52305894  0.72145062    -0.74400
O971        O  0.98367654  0.52287351  0.90689638    -0.74000
Mn972      Mn  0.91524965  0.85457959  0.81364560     1.51100
O973        O  0.51836847  0.86271851  0.76527787    -0.86300
O974        O  0.98510637  0.56856188  0.85563321    -0.93900
O975        O  0.93766197  0.82426217  0.86298074    -0.88900
C976        C  0.98486741  0.56063832  0.89495017     1.15900
C977        C  0.98715690  0.62693068  0.94734908    -0.10600
C978        C  0.98638912  0.59494555  0.92602922    -0.12200
C979        C  0.97547877  0.77249908  0.94086527    -0.10600
C980        C  0.97577661  0.80057416  0.91411939    -0.12200
C981        C  0.98776029  0.59534528  0.70232836    -0.10600
C982        C  0.98861063  0.62731020  0.68099002    -0.12200
C983        C  0.97746603  0.80119195  0.71441056    -0.10600
C984        C  0.97765227  0.77319837  0.68789621    -0.12200
C985        C  0.81617207  0.97838639  0.91409614    -0.10600
C986        C  0.78862934  0.97912360  0.94089837    -0.12200
C987        C  0.60080044  0.96942523  0.92607727    -0.10600
C988        C  0.63216955  0.96915316  0.94752504    -0.12200
C989        C  0.81615190  0.97758250  0.71394525    -0.10600
C990        C  0.78820477  0.97772263  0.68731143    -0.12200
C991        C  0.63124563  0.96679078  0.68132574    -0.10600
C992        C  0.59986033  0.96732454  0.70248215    -0.12200
C993        C  0.82866156  0.82258893  0.94746368    -0.10600
C994        C  0.86032519  0.85391159  0.92597359    -0.12200
C995        C  0.68271384  0.66571867  0.94084745    -0.10600
C996        C  0.65451751  0.63830555  0.91393350    -0.12200
C997        C  0.85950793  0.85504933  0.70228843    -0.10600
C998        C  0.82747305  0.82378316  0.68111304    -0.12200
C999        C  0.65316067  0.63880803  0.71398388    -0.10600
C1000       C  0.68115598  0.66698557  0.68746269    -0.12200
loop_ 
_geom_bond_atom_site_label_1 
_geom_bond_atom_site_label_2 
_geom_bond_distance 
_geom_bond_site_symmetry_2 
_ccdc_geom_bond_type 
C1            C2   1.410       .  A
C1            C6   1.396       .  A
C1          C125   1.446       .  S
C2            C3   1.421       .  A
C2            H7   1.080       .  S
C3            C4   1.417       .  A
C3           C12   1.514       .  S
C4            C5   1.393       .  A
C4            H8   1.078       .  S
C5            C6   1.392       .  A
C5          C123   1.438       .  S
C6            H9   1.085       .  S
C10          C15   1.396       .  A
C10         C136   1.407       .  A
C10         C120   1.444       .  S
C11          C12   1.421       .  A
C11         C135   1.409   1_554  A
C11          H16   1.080       .  S
C12          C13   1.417       .  A
C13         C139   1.393   1_554  A
C13          H17   1.078       .  S
C14          C15   1.393       .  A
C14         C138   1.392       .  A
C14         C118   1.437       .  S
C15          H18   1.085       .  S
C19          C20   1.409       .  A
C19          C24   1.397       .  A
C19         C115   1.446       .  S
C20          C21   1.420       .  A
C20          H25   1.080       .  S
C21          C22   1.418       .  A
C21          C30   1.515       .  S
C22          C23   1.394       .  A
C22          H26   1.078       .  S
C23          C24   1.393       .  A
C23         C116   1.441       .  S
C24          H27   1.085       .  S
C28          C33   1.396       .  A
C28         C154   1.408       .  A
C28         C111   1.445       .  S
C29          C30   1.422       .  A
C29         C153   1.410   1_554  A
C29          H34   1.080       .  S
C30          C31   1.417       .  A
C31         C157   1.393   1_554  A
C31          H35   1.078       .  S
C32          C33   1.393       .  A
C32         C156   1.393       .  A
C32         C113   1.438       .  S
C33          H36   1.085       .  S
C37          C38   1.397       .  A
C37          C42   1.410       .  A
C37         C109   1.448       .  S
C38          C39   1.393       .  A
C38          H43   1.085       .  S
C39          C40   1.393       .  A
C39         C107   1.439       .  S
C40          C41   1.417       .  A
C40          H44   1.078       .  S
C41          C42   1.422       .  A
C41          C48   1.515       .  S
C42          H45   1.080       .  S
C46          C51   1.397       .  A
C46         C172   1.408       .  A
C46         C104   1.446       .  S
C47          C48   1.420       .  A
C47         C171   1.409   1_554  A
C47          H52   1.080       .  S
C48          C49   1.418       .  A
C49         C175   1.394   1_554  A
C49          H53   1.078       .  S
C50          C51   1.393       .  A
C50         C174   1.393       .  A
C50         C102   1.438       .  S
C51          H54   1.085       .  S
O55         Mn81   2.100       .  S
O55         C332   1.272   1_545  A
C56         C121   1.440       .  S
C56          O89   1.271       .  A
C56          O86   1.271       .  A
O57         Mn64   2.164       .  S
O57         Mn75   2.131       .  S
O57         Mn79   2.164       .  S
O57        Mn331   2.131       .  S
O58         Mn92   2.099       .  S
O58          C68   1.271       .  A
O59         Mn75   2.099       .  S
O59          C82   1.271       .  A
O60         Mn79   2.097       .  S
O60          C87   1.251       .  A
O61         Mn81   1.962       .  S
O61        Mn592   1.963       .  S
O61          C77   1.216       .  S
C62         C117   1.433       .  S
C62          O65   1.251       .  A
C62          O88   1.215       .  S
O63         Mn64   2.165       .  S
O63         Mn97   2.132       .  S
O63         Mn79   2.164       .  S
O63        Mn583   2.130       .  S
Mn64         O69   2.098       .  S
Mn64        O593   2.097       .  S
Mn64        O346   2.099       .  S
Mn64        O820   2.164       .  S
O65        Mn579   2.101   1_455  S
O66         Mn73   2.102       .  S
O66          C68   1.272       .  A
C67         C112   1.430       .  S
C67          O93   1.250       .  A
C67          O80   1.216       .  S
C68         C124   1.442       .  S
O69          C94   1.250       .  A
O70         Mn73   2.132       .  S
O70         Mn92   2.131       .  S
O70        Mn814   2.164   1_445  S
O70        Mn829   2.164   1_445  S
O71         Mn75   1.961       .  S
O71         Mn97   1.961       .  S
O71          C94   1.215       .  S
C72         C108   1.444       .  S
C72          O74   1.272       .  A
C72         O598   1.271       .  A
Mn73         O86   2.098       .  S
Mn73        O338   1.962   1_545  S
Mn73        O330   1.961   1_545  S
O74         Mn97   2.103       .  S
Mn75         O91   2.100       .  S
Mn75         O85   1.964       .  S
O76         Mn81   2.099       .  S
O76         C328   1.271   1_545  A
C77         C106   1.431       .  S
C77          O95   1.251       .  A
C78         C110   1.441       .  S
C78          O91   1.271       .  A
C78         O326   1.271       .  A
Mn79        O565   2.101       .  S
Mn79        O345   2.098       .  S
Mn79        O820   2.164       .  S
O80         Mn83   1.963       .  S
O80        Mn323   1.961       .  S
Mn81        O307   2.131   1_545  S
Mn81         O99   1.960       .  S
C82         C114   1.441       .  S
C82         O305   1.272       .  A
Mn83         O90   2.100       .  S
Mn83         O98   2.102       .  S
Mn83        O563   2.130   1_455  S
Mn83         O88   1.964       .  S
C84         C105   1.441       .  S
C84         O100   1.271       .  A
C84         O590   1.271       .  A
O85         Mn97   1.963       .  S
O85          C87   1.216       .  S
C87         C122   1.431       .  S
O88        Mn323   1.962       .  S
O89         Mn92   2.099       .  S
O90         C584   1.271   1_455  A
Mn92        O561   1.963   1_455  S
Mn92        O599   1.962   1_455  S
O93        Mn564   2.097   1_455  S
C94         C119   1.430       .  S
O95        Mn329   2.098   1_545  S
O96        Mn314   2.099   1_545  S
O96         C101   1.250       .  A
Mn97        O100   2.101       .  S
O98         C572   1.271   1_455  A
O99        Mn592   1.962       .  S
O99         C101   1.215       .  S
C101        C103   1.431       .  S
C102        C103   1.204       .  T
C104        C105   1.210       .  T
C106        C107   1.204       .  T
C108        C109   1.211       .  T
C110        C111   1.209       .  T
C112        C113   1.204       .  T
C114        C115   1.210       .  T
C116        C117   1.205       .  T
C118        C119   1.203       .  T
C120        C121   1.209       .  T
C122        C123   1.204       .  T
C124        C125   1.210       .  T
C126        C127   1.407       .  A
C126        C131   1.396       .  A
C126        C250   1.444       .  S
C127        C128   1.420       .  A
C127        H132   1.080       .  S
C128        C129   1.417       .  A
C128        C137   1.512       .  S
C129        C130   1.393       .  A
C129        H133   1.078       .  S
C130        C131   1.393       .  A
C130        C248   1.438       .  S
C131        H134   1.085       .  S
C135        C140   1.396       .  A
C135        C245   1.446       .  S
C136        C137   1.420       .  A
C136        H141   1.080       .  S
C137        C138   1.416       .  A
C138        H142   1.078       .  S
C139        C140   1.392       .  A
C139        C243   1.439       .  S
C140        H143   1.085       .  S
C144        C145   1.408       .  A
C144        C149   1.397       .  A
C144        C240   1.446       .  S
C145        C146   1.421       .  A
C145        H150   1.080       .  S
C146        C147   1.416       .  A
C146        C155   1.513       .  S
C147        C148   1.393       .  A
C147        H151   1.078       .  S
C148        C149   1.393       .  A
C148        C241   1.438       .  S
C149        H152   1.085       .  S
C153        C158   1.397       .  A
C153        C236   1.448       .  S
C154        C155   1.420       .  A
C154        H159   1.080       .  S
C155        C156   1.417       .  A
C156        H160   1.078       .  S
C157        C158   1.393       .  A
C157        C238   1.439       .  S
C158        H161   1.085       .  S
C162        C163   1.396       .  A
C162        C167   1.408       .  A
C162        C234   1.445       .  S
C163        C164   1.393       .  A
C163        H168   1.085       .  S
C164        C165   1.393       .  A
C164        C232   1.438       .  S
C165        C166   1.417       .  A
C165        H169   1.078       .  S
C166        C167   1.420       .  A
C166        C173   1.513       .  S
C167        H170   1.080       .  S
C171        C176   1.397       .  A
C171        C229   1.446       .  S
C172        C173   1.420       .  A
C172        H177   1.080       .  S
C173        C174   1.416       .  A
C174        H178   1.078       .  S
C175        C176   1.393       .  A
C175        C227   1.441       .  S
C176        H179   1.085       .  S
O180       Mn206   2.100       .  S
O180        C457   1.271   1_545  A
C181        C246   1.442       .  S
C181        O214   1.272       .  A
C181        O211   1.271       .  A
O182       Mn189   2.163       .  S
O182       Mn200   2.132       .  S
O182       Mn204   2.165       .  S
O182       Mn456   2.130       .  S
O183       Mn217   2.098       .  S
O183        C193   1.271       .  A
O184       Mn200   2.100       .  S
O184        C207   1.271       .  A
O185       Mn204   2.098       .  S
O185        C212   1.250       .  A
O186       Mn717   1.961       .  S
O186       Mn206   1.963       .  S
O186        C202   1.216       .  S
C187        C242   1.431       .  S
C187        O190   1.250       .  A
C187        O213   1.215       .  S
O188       Mn708   2.131       .  S
O188       Mn189   2.164       .  S
O188       Mn222   2.131       .  S
O188       Mn204   2.164       .  S
Mn189       O718   2.098       .  S
Mn189       O194   2.097       .  S
Mn189       O471   2.101       .  S
Mn189       O945   2.164       .  S
O190       Mn704   2.099   1_455  S
O191       Mn198   2.099       .  S
O191        C193   1.271       .  A
C192        C237   1.431       .  S
C192        O218   1.250       .  A
C192        O205   1.216       .  S
C193        C249   1.440       .  S
O194        C219   1.251       .  A
O195       Mn939   2.164   1_445  S
O195       Mn198   2.131       .  S
O195       Mn217   2.132       .  S
O195       Mn954   2.164   1_445  S
O196       Mn200   1.963       .  S
O196       Mn222   1.964       .  S
O196        C219   1.216       .  S
C197        C233   1.441       .  S
C197        O723   1.271       .  A
C197        O199   1.271       .  A
Mn198       O211   2.098       .  S
Mn198       O463   1.961   1_545  S
Mn198       O455   1.963   1_545  S
O199       Mn222   2.100       .  S
Mn200       O216   2.103       .  S
Mn200       O210   1.961       .  S
O201       Mn206   2.102       .  S
O201        C453   1.271   1_545  A
C202        C231   1.430       .  S
C202        O220   1.250       .  A
C203        C235   1.444       .  S
C203        O451   1.271       .  A
C203        O216   1.272       .  A
Mn204       O690   2.099       .  S
Mn204       O470   2.097       .  S
Mn204       O945   2.164       .  S
O205       Mn448   1.963       .  S
O205       Mn208   1.963       .  S
Mn206       O432   2.130   1_545  S
Mn206       O224   1.964       .  S
C207        C239   1.441       .  S
C207        O430   1.271       .  A
Mn208       O215   2.101       .  S
Mn208       O223   2.099       .  S
Mn208       O688   2.131   1_455  S
Mn208       O213   1.960       .  S
C209        C230   1.441       .  S
C209        O715   1.272       .  A
C209        O225   1.271       .  A
O210       Mn222   1.961       .  S
O210        C212   1.215       .  S
C212        C247   1.430       .  S
O213       Mn448   1.961       .  S
O214       Mn217   2.102       .  S
O215        C709   1.272   1_455  A
Mn217       O686   1.961   1_455  S
Mn217       O724   1.962   1_455  S
O218       Mn689   2.098   1_455  S
C219        C244   1.431       .  S
O220       Mn454   2.097   1_545  S
O221       Mn439   2.101   1_545  S
O221        C226   1.251       .  A
Mn222       O225   2.099       .  S
O223        C697   1.271   1_455  A
O224       Mn717   1.962       .  S
O224        C226   1.215       .  S
C226        C228   1.433       .  S
C227        C228   1.205       .  T
C229        C230   1.210       .  T
C231        C232   1.204       .  T
C233        C234   1.209       .  T
C235        C236   1.211       .  T
C237        C238   1.204       .  T
C239        C240   1.209       .  T
C241        C242   1.204       .  T
C243        C244   1.204       .  T
C245        C246   1.210       .  T
C247        C248   1.203       .  T
C249        C250   1.209       .  T
C251        C252   1.410       .  A
C251        C256   1.396       .  A
C251        C375   1.446       .  S
C252        C253   1.421       .  A
C252        H257   1.080       .  S
C253        C254   1.417       .  A
C253        C262   1.514       .  S
C254        C255   1.393       .  A
C254        H258   1.078       .  S
C255        C256   1.392       .  A
C255        C373   1.438       .  S
C256        H259   1.085       .  S
C260        C386   1.407       .  A
C260        C265   1.396       .  A
C260        C370   1.444       .  S
C261        C385   1.409   1_554  A
C261        C262   1.421       .  A
C261        H266   1.080       .  S
C262        C263   1.417       .  A
C263        C389   1.393   1_554  A
C263        H267   1.078       .  S
C264        C388   1.392       .  A
C264        C265   1.393       .  A
C264        C368   1.437       .  S
C265        H268   1.085       .  S
C269        C270   1.409       .  A
C269        C274   1.397       .  A
C269        C365   1.446       .  S
C270        C271   1.420       .  A
C270        H275   1.080       .  S
C271        C272   1.418       .  A
C271        C280   1.515       .  S
C272        C273   1.394       .  A
C272        H276   1.078       .  S
C273        C274   1.393       .  A
C273        C366   1.441       .  S
C274        H277   1.085       .  S
C278        C404   1.408       .  A
C278        C283   1.396       .  A
C278        C361   1.445       .  S
C279        C403   1.410   1_554  A
C279        C280   1.422       .  A
C279        H284   1.080       .  S
C280        C281   1.417       .  A
C281        C407   1.393   1_554  A
C281        H285   1.078       .  S
C282        C406   1.393       .  A
C282        C283   1.393       .  A
C282        C363   1.438       .  S
C283        H286   1.085       .  S
C287        C288   1.397       .  A
C287        C292   1.410       .  A
C287        C359   1.448       .  S
C288        C289   1.393       .  A
C288        H293   1.085       .  S
C289        C290   1.393       .  A
C289        C357   1.439       .  S
C290        C291   1.417       .  A
C290        H294   1.078       .  S
C291        C292   1.422       .  A
C291        C298   1.515       .  S
C292        H295   1.080       .  S
C296        C422   1.408       .  A
C296        C301   1.397       .  A
C296        C354   1.446       .  S
C297        C421   1.409   1_554  A
C297        C298   1.420       .  A
C297        H302   1.080       .  S
C298        C299   1.418       .  A
C299        C425   1.394   1_554  A
C299        H303   1.078       .  S
C300        C424   1.393       .  A
C300        C301   1.393       .  A
C300        C352   1.438       .  S
C301        H304   1.085       .  S
O305       Mn331   2.100       .  S
C306        C371   1.440       .  S
C306        O339   1.271       .  A
C306        O336   1.271       .  A
O307       Mn314   2.164       .  S
O307       Mn325   2.131       .  S
O307       Mn329   2.164       .  S
O308       Mn342   2.099       .  S
O308        C318   1.271       .  A
O309       Mn325   2.099       .  S
O309        C332   1.271       .  A
O310       Mn329   2.097       .  S
O310        C337   1.251       .  A
O311       Mn842   1.963       .  S
O311       Mn331   1.962       .  S
O311        C327   1.216       .  S
C312        C367   1.433       .  S
C312        O315   1.251       .  A
C312        O338   1.215       .  S
O313       Mn833   2.130       .  S
O313       Mn314   2.165       .  S
O313       Mn347   2.132       .  S
O313       Mn329   2.164       .  S
Mn314       O843   2.097       .  S
Mn314       O319   2.098       .  S
Mn314       O570   2.164   1_565  S
O315       Mn829   2.101   1_455  S
O316       Mn323   2.102       .  S
O316        C318   1.272       .  A
C317        C362   1.430       .  S
C317        O343   1.250       .  A
C317        O330   1.216       .  S
C318        C374   1.442       .  S
O319        C344   1.250       .  A
O320       Mn564   2.164   1_455  S
O320       Mn323   2.132       .  S
O320       Mn342   2.131       .  S
O320       Mn579   2.164   1_455  S
O321       Mn325   1.961       .  S
O321       Mn347   1.961       .  S
O321        C344   1.215       .  S
C322        C358   1.444       .  S
C322        O848   1.271       .  A
C322        O324   1.272       .  A
Mn323       O336   2.098       .  S
O324       Mn347   2.103       .  S
Mn325       O341   2.100       .  S
Mn325       O335   1.964       .  S
O326       Mn331   2.099       .  S
C327        C356   1.431       .  S
C327        O345   1.251       .  A
C328        C360   1.441       .  S
C328        O341   1.271       .  A
Mn329       O815   2.101       .  S
Mn329       O570   2.164   1_565  S
O330       Mn333   1.963       .  S
Mn331       O349   1.960       .  S
C332        C364   1.441       .  S
Mn333       O340   2.100       .  S
Mn333       O348   2.102       .  S
Mn333       O813   2.130   1_455  S
Mn333       O338   1.964       .  S
C334        C355   1.442       .  S
C334        O840   1.271       .  A
C334        O350   1.271       .  A
O335       Mn347   1.963       .  S
O335        C337   1.216       .  S
C337        C372   1.431       .  S
O339       Mn342   2.099       .  S
O340        C834   1.271   1_455  A
Mn342       O811   1.963   1_455  S
Mn342       O849   1.962   1_455  S
O343       Mn814   2.097   1_455  S
C344        C369   1.430       .  S
O346        C351   1.250       .  A
Mn347       O350   2.101       .  S
O348        C822   1.271   1_455  A
O349       Mn842   1.962       .  S
O349        C351   1.215       .  S
C351        C353   1.431       .  S
C352        C353   1.204       .  T
C354        C355   1.210       .  T
C356        C357   1.204       .  T
C358        C359   1.211       .  T
C360        C361   1.209       .  T
C362        C363   1.204       .  T
C364        C365   1.210       .  T
C366        C367   1.205       .  T
C368        C369   1.203       .  T
C370        C371   1.209       .  T
C372        C373   1.204       .  T
C374        C375   1.210       .  T
C376        C377   1.407       .  A
C376        C381   1.396       .  A
C376        C500   1.444       .  S
C377        C378   1.420       .  A
C377        H382   1.080       .  S
C378        C379   1.417       .  A
C378        C387   1.512       .  S
C379        C380   1.393       .  A
C379        H383   1.078       .  S
C380        C381   1.393       .  A
C380        C498   1.438       .  S
C381        H384   1.085       .  S
C385        C390   1.396       .  A
C385        C495   1.446       .  S
C386        C387   1.420       .  A
C386        H391   1.080       .  S
C387        C388   1.416       .  A
C388        H392   1.078       .  S
C389        C390   1.392       .  A
C389        C493   1.439       .  S
C390        H393   1.085       .  S
C394        C395   1.408       .  A
C394        C399   1.397       .  A
C394        C490   1.446       .  S
C395        C396   1.421       .  A
C395        H400   1.080       .  S
C396        C397   1.416       .  A
C396        C405   1.513       .  S
C397        C398   1.393       .  A
C397        H401   1.078       .  S
C398        C399   1.393       .  A
C398        C491   1.438       .  S
C399        H402   1.085       .  S
C403        C408   1.397       .  A
C403        C486   1.448       .  S
C404        C405   1.420       .  A
C404        H409   1.080       .  S
C405        C406   1.417       .  A
C406        H410   1.078       .  S
C407        C408   1.393       .  A
C407        C488   1.439       .  S
C408        H411   1.085       .  S
C412        C413   1.396       .  A
C412        C417   1.408       .  A
C412        C484   1.445       .  S
C413        C414   1.393       .  A
C413        H418   1.085       .  S
C414        C415   1.393       .  A
C414        C482   1.438       .  S
C415        C416   1.417       .  A
C415        H419   1.078       .  S
C416        C417   1.420       .  A
C416        C423   1.513       .  S
C417        H420   1.080       .  S
C421        C426   1.397       .  A
C421        C479   1.446       .  S
C422        C423   1.420       .  A
C422        H427   1.080       .  S
C423        C424   1.416       .  A
C424        H428   1.078       .  S
C425        C426   1.393       .  A
C425        C477   1.441       .  S
C426        H429   1.085       .  S
O430       Mn456   2.099       .  S
C431        C496   1.442       .  S
C431        O464   1.272       .  A
C431        O461   1.271       .  A
O432       Mn439   2.163       .  S
O432       Mn450   2.132       .  S
O432       Mn454   2.165       .  S
O433       Mn467   2.098       .  S
O433        C443   1.271       .  A
O434       Mn450   2.100       .  S
O434        C457   1.271       .  A
O435       Mn454   2.098       .  S
O435        C462   1.250       .  A
O436       Mn967   1.961       .  S
O436       Mn456   1.963       .  S
O436        C452   1.216       .  S
C437        C492   1.431       .  S
C437        O440   1.250       .  A
C437        O463   1.215       .  S
O438       Mn958   2.131       .  S
O438       Mn439   2.164       .  S
O438       Mn472   2.131       .  S
O438       Mn454   2.164       .  S
Mn439       O968   2.098       .  S
Mn439       O444   2.097       .  S
Mn439       O695   2.164   1_565  S
O440       Mn954   2.099   1_455  S
O441       Mn448   2.099       .  S
O441        C443   1.271       .  A
C442        C487   1.431       .  S
C442        O468   1.250       .  A
C442        O455   1.216       .  S
C443        C499   1.440       .  S
O444        C469   1.251       .  A
O445       Mn689   2.164   1_455  S
O445       Mn448   2.131       .  S
O445       Mn467   2.132       .  S
O445       Mn704   2.164   1_455  S
O446       Mn450   1.963       .  S
O446       Mn472   1.964       .  S
O446        C469   1.216       .  S
C447        C483   1.441       .  S
C447        O973   1.271       .  A
C447        O449   1.271       .  A
Mn448       O461   2.098       .  S
O449       Mn472   2.100       .  S
Mn450       O466   2.103       .  S
Mn450       O460   1.961       .  S
O451       Mn456   2.102       .  S
C452        C481   1.430       .  S
C452        O470   1.250       .  A
C453        C485   1.444       .  S
C453        O466   1.272       .  A
Mn454       O940   2.099       .  S
Mn454       O695   2.164   1_565  S
O455       Mn458   1.963       .  S
Mn456       O474   1.964       .  S
C457        C489   1.441       .  S
Mn458       O465   2.101       .  S
Mn458       O473   2.099       .  S
Mn458       O938   2.131   1_455  S
Mn458       O463   1.960       .  S
C459        C480   1.441       .  S
C459        O965   1.272       .  A
C459        O475   1.271       .  A
O460       Mn472   1.961       .  S
O460        C462   1.215       .  S
C462        C497   1.430       .  S
O464       Mn467   2.102       .  S
O465        C959   1.272   1_455  A
Mn467       O936   1.961   1_455  S
Mn467       O974   1.962   1_455  S
O468       Mn939   2.098   1_455  S
C469        C494   1.431       .  S
O471        C476   1.251       .  A
Mn472       O475   2.099       .  S
O473        C947   1.271   1_455  A
O474       Mn967   1.962       .  S
O474        C476   1.215       .  S
C476        C478   1.433       .  S
C477        C478   1.205       .  T
C479        C480   1.210       .  T
C481        C482   1.204       .  T
C483        C484   1.209       .  T
C485        C486   1.211       .  T
C487        C488   1.204       .  T
C489        C490   1.209       .  T
C491        C492   1.204       .  T
C493        C494   1.204       .  T
C495        C496   1.210       .  T
C497        C498   1.203       .  T
C499        C500   1.209       .  T
C501        C502   1.410       .  A
C501        C506   1.396       .  A
C501        C625   1.446       .  S
C502        C503   1.421       .  A
C502        H507   1.080       .  S
C503        C504   1.417       .  A
C503        C512   1.514       .  S
C504        C505   1.393       .  A
C504        H508   1.078       .  S
C505        C506   1.392       .  A
C505        C623   1.438       .  S
C506        H509   1.085       .  S
C510        C636   1.407       .  A
C510        C515   1.396       .  A
C510        C620   1.444       .  S
C511        C635   1.409   1_554  A
C511        C512   1.421       .  A
C511        H516   1.080       .  S
C512        C513   1.417       .  A
C513        C639   1.393   1_554  A
C513        H517   1.078       .  S
C514        C638   1.392       .  A
C514        C515   1.393       .  A
C514        C618   1.437       .  S
C515        H518   1.085       .  S
C519        C520   1.409       .  A
C519        C524   1.397       .  A
C519        C615   1.446       .  S
C520        C521   1.420       .  A
C520        H525   1.080       .  S
C521        C522   1.418       .  A
C521        C530   1.515       .  S
C522        C523   1.394       .  A
C522        H526   1.078       .  S
C523        C524   1.393       .  A
C523        C616   1.441       .  S
C524        H527   1.085       .  S
C528        C654   1.408       .  A
C528        C533   1.396       .  A
C528        C611   1.445       .  S
C529        C653   1.410   1_554  A
C529        C530   1.422       .  A
C529        H534   1.080       .  S
C530        C531   1.417       .  A
C531        C657   1.393   1_554  A
C531        H535   1.078       .  S
C532        C656   1.393       .  A
C532        C533   1.393       .  A
C532        C613   1.438       .  S
C533        H536   1.085       .  S
C537        C538   1.397       .  A
C537        C542   1.410       .  A
C537        C609   1.448       .  S
C538        C539   1.393       .  A
C538        H543   1.085       .  S
C539        C540   1.393       .  A
C539        C607   1.439       .  S
C540        C541   1.417       .  A
C540        H544   1.078       .  S
C541        C542   1.422       .  A
C541        C548   1.515       .  S
C542        H545   1.080       .  S
C546        C672   1.408       .  A
C546        C551   1.397       .  A
C546        C604   1.446       .  S
C547        C671   1.409   1_554  A
C547        C548   1.420       .  A
C547        H552   1.080       .  S
C548        C549   1.418       .  A
C549        C675   1.394   1_554  A
C549        H553   1.078       .  S
C550        C674   1.393       .  A
C550        C551   1.393       .  A
C550        C602   1.438       .  S
C551        H554   1.085       .  S
O555       Mn581   2.100       .  S
O555        C832   1.272   1_545  A
C556        C621   1.440       .  S
C556        O589   1.271       .  A
C556        O586   1.271       .  A
O557       Mn564   2.164       .  S
O557       Mn575   2.131       .  S
O557       Mn579   2.164       .  S
O557       Mn831   2.131       .  S
O558       Mn592   2.099       .  S
O558        C568   1.271       .  A
O559       Mn575   2.099       .  S
O559        C582   1.271       .  A
O560       Mn579   2.097       .  S
O560        C587   1.251       .  A
O561       Mn581   1.962       .  S
O561        C577   1.216       .  S
C562        C617   1.433       .  S
C562        O565   1.251       .  A
C562        O588   1.215       .  S
O563       Mn564   2.165       .  S
O563       Mn597   2.132       .  S
O563       Mn579   2.164       .  S
Mn564       O569   2.098       .  S
Mn564       O846   2.099       .  S
O566       Mn573   2.102       .  S
O566        C568   1.272       .  A
C567        C612   1.430       .  S
C567        O593   1.250       .  A
C567        O580   1.216       .  S
C568        C624   1.442       .  S
O569        C594   1.250       .  A
O570       Mn573   2.132       .  S
O570       Mn592   2.131       .  S
O571       Mn575   1.961       .  S
O571       Mn597   1.961       .  S
O571        C594   1.215       .  S
C572        C608   1.444       .  S
C572        O574   1.272       .  A
Mn573       O586   2.098       .  S
Mn573       O838   1.962   1_545  S
Mn573       O830   1.961   1_545  S
O574       Mn597   2.103       .  S
Mn575       O591   2.100       .  S
Mn575       O585   1.964       .  S
O576       Mn581   2.099       .  S
O576        C828   1.271   1_545  A
C577        C606   1.431       .  S
C577        O595   1.251       .  A
C578        C610   1.441       .  S
C578        O826   1.271       .  A
C578        O591   1.271       .  A
Mn579       O845   2.098       .  S
O580       Mn823   1.961       .  S
O580       Mn583   1.963       .  S
Mn581       O807   2.131   1_545  S
Mn581       O599   1.960       .  S
C582        C614   1.441       .  S
C582        O805   1.272       .  A
Mn583       O590   2.100       .  S
Mn583       O598   2.102       .  S
Mn583       O588   1.964       .  S
C584        C605   1.441       .  S
C584        O600   1.271       .  A
O585       Mn597   1.963       .  S
O585        C587   1.216       .  S
C587        C622   1.431       .  S
O588       Mn823   1.962       .  S
O589       Mn592   2.099       .  S
C594        C619   1.430       .  S
O595       Mn829   2.098   1_545  S
O596       Mn814   2.099   1_545  S
O596        C601   1.250       .  A
Mn597       O600   2.101       .  S
O599        C601   1.215       .  S
C601        C603   1.431       .  S
C602        C603   1.204       .  T
C604        C605   1.210       .  T
C606        C607   1.204       .  T
C608        C609   1.211       .  T
C610        C611   1.209       .  T
C612        C613   1.204       .  T
C614        C615   1.210       .  T
C616        C617   1.205       .  T
C618        C619   1.203       .  T
C620        C621   1.209       .  T
C622        C623   1.204       .  T
C624        C625   1.210       .  T
C626        C627   1.407       .  A
C626        C631   1.396       .  A
C626        C750   1.444       .  S
C627        C628   1.420       .  A
C627        H632   1.080       .  S
C628        C629   1.417       .  A
C628        C637   1.512       .  S
C629        C630   1.393       .  A
C629        H633   1.078       .  S
C630        C631   1.393       .  A
C630        C748   1.438       .  S
C631        H634   1.085       .  S
C635        C640   1.396       .  A
C635        C745   1.446       .  S
C636        C637   1.420       .  A
C636        H641   1.080       .  S
C637        C638   1.416       .  A
C638        H642   1.078       .  S
C639        C640   1.392       .  A
C639        C743   1.439       .  S
C640        H643   1.085       .  S
C644        C645   1.408       .  A
C644        C649   1.397       .  A
C644        C740   1.446       .  S
C645        C646   1.421       .  A
C645        H650   1.080       .  S
C646        C647   1.416       .  A
C646        C655   1.513       .  S
C647        C648   1.393       .  A
C647        H651   1.078       .  S
C648        C649   1.393       .  A
C648        C741   1.438       .  S
C649        H652   1.085       .  S
C653        C658   1.397       .  A
C653        C736   1.448       .  S
C654        C655   1.420       .  A
C654        H659   1.080       .  S
C655        C656   1.417       .  A
C656        H660   1.078       .  S
C657        C658   1.393       .  A
C657        C738   1.439       .  S
C658        H661   1.085       .  S
C662        C663   1.396       .  A
C662        C667   1.408       .  A
C662        C734   1.445       .  S
C663        C664   1.393       .  A
C663        H668   1.085       .  S
C664        C665   1.393       .  A
C664        C732   1.438       .  S
C665        C666   1.417       .  A
C665        H669   1.078       .  S
C666        C667   1.420       .  A
C666        C673   1.513       .  S
C667        H670   1.080       .  S
C671        C676   1.397       .  A
C671        C729   1.446       .  S
C672        C673   1.420       .  A
C672        H677   1.080       .  S
C673        C674   1.416       .  A
C674        H678   1.078       .  S
C675        C676   1.393       .  A
C675        C727   1.441       .  S
C676        H679   1.085       .  S
O680       Mn706   2.100       .  S
O680        C957   1.271   1_545  A
C681        C746   1.442       .  S
C681        O714   1.272       .  A
C681        O711   1.271       .  A
O682       Mn689   2.163       .  S
O682       Mn700   2.132       .  S
O682       Mn704   2.165       .  S
O682       Mn956   2.130       .  S
O683       Mn717   2.098       .  S
O683        C693   1.271       .  A
O684       Mn700   2.100       .  S
O684        C707   1.271       .  A
O685       Mn704   2.098       .  S
O685        C712   1.250       .  A
O686       Mn706   1.963       .  S
O686        C702   1.216       .  S
C687        C742   1.431       .  S
C687        O690   1.250       .  A
C687        O713   1.215       .  S
O688       Mn689   2.164       .  S
O688       Mn722   2.131       .  S
O688       Mn704   2.164       .  S
Mn689       O694   2.097       .  S
Mn689       O971   2.101       .  S
O691       Mn698   2.099       .  S
O691        C693   1.271       .  A
C692        C737   1.431       .  S
C692        O718   1.250       .  A
C692        O705   1.216       .  S
C693        C749   1.440       .  S
O694        C719   1.251       .  A
O695       Mn698   2.131       .  S
O695       Mn717   2.132       .  S
O696       Mn700   1.963       .  S
O696       Mn722   1.964       .  S
O696        C719   1.216       .  S
C697        C733   1.441       .  S
C697        O699   1.271       .  A
Mn698       O711   2.098       .  S
Mn698       O963   1.961   1_545  S
Mn698       O955   1.963   1_545  S
O699       Mn722   2.100       .  S
Mn700       O716   2.103       .  S
Mn700       O710   1.961       .  S
O701       Mn706   2.102       .  S
O701        C953   1.271   1_545  A
C702        C731   1.430       .  S
C702        O720   1.250       .  A
C703        C735   1.444       .  S
C703        O951   1.271       .  A
C703        O716   1.272       .  A
Mn704       O970   2.097       .  S
O705       Mn948   1.963       .  S
O705       Mn708   1.963       .  S
Mn706       O932   2.130   1_545  S
Mn706       O724   1.964       .  S
C707        C739   1.441       .  S
C707        O930   1.271       .  A
Mn708       O715   2.101       .  S
Mn708       O723   2.099       .  S
Mn708       O713   1.960       .  S
C709        C730   1.441       .  S
C709        O725   1.271       .  A
O710       Mn722   1.961       .  S
O710        C712   1.215       .  S
C712        C747   1.430       .  S
O713       Mn948   1.961       .  S
O714       Mn717   2.102       .  S
C719        C744   1.431       .  S
O720       Mn954   2.097   1_545  S
O721       Mn939   2.101   1_545  S
O721        C726   1.251       .  A
Mn722       O725   2.099       .  S
O724        C726   1.215       .  S
C726        C728   1.433       .  S
C727        C728   1.205       .  T
C729        C730   1.210       .  T
C731        C732   1.204       .  T
C733        C734   1.209       .  T
C735        C736   1.211       .  T
C737        C738   1.204       .  T
C739        C740   1.209       .  T
C741        C742   1.204       .  T
C743        C744   1.204       .  T
C745        C746   1.210       .  T
C747        C748   1.203       .  T
C749        C750   1.209       .  T
C751        C752   1.410       .  A
C751        C756   1.396       .  A
C751        C875   1.446       .  S
C752        C753   1.421       .  A
C752        H757   1.080       .  S
C753        C754   1.417       .  A
C753        C762   1.514       .  S
C754        C755   1.393       .  A
C754        H758   1.078       .  S
C755        C756   1.392       .  A
C755        C873   1.438       .  S
C756        H759   1.085       .  S
C760        C886   1.407       .  A
C760        C765   1.396       .  A
C760        C870   1.444       .  S
C761        C885   1.409   1_554  A
C761        C762   1.421       .  A
C761        H766   1.080       .  S
C762        C763   1.417       .  A
C763        C889   1.393   1_554  A
C763        H767   1.078       .  S
C764        C888   1.392       .  A
C764        C765   1.393       .  A
C764        C868   1.437       .  S
C765        H768   1.085       .  S
C769        C770   1.409       .  A
C769        C774   1.397       .  A
C769        C865   1.446       .  S
C770        C771   1.420       .  A
C770        H775   1.080       .  S
C771        C772   1.418       .  A
C771        C780   1.515       .  S
C772        C773   1.394       .  A
C772        H776   1.078       .  S
C773        C774   1.393       .  A
C773        C866   1.441       .  S
C774        H777   1.085       .  S
C778        C904   1.408       .  A
C778        C783   1.396       .  A
C778        C861   1.445       .  S
C779        C903   1.410   1_554  A
C779        C780   1.422       .  A
C779        H784   1.080       .  S
C780        C781   1.417       .  A
C781        C907   1.393   1_554  A
C781        H785   1.078       .  S
C782        C906   1.393       .  A
C782        C783   1.393       .  A
C782        C863   1.438       .  S
C783        H786   1.085       .  S
C787        C788   1.397       .  A
C787        C792   1.410       .  A
C787        C859   1.448       .  S
C788        C789   1.393       .  A
C788        H793   1.085       .  S
C789        C790   1.393       .  A
C789        C857   1.439       .  S
C790        C791   1.417       .  A
C790        H794   1.078       .  S
C791        C792   1.422       .  A
C791        C798   1.515       .  S
C792        H795   1.080       .  S
C796        C922   1.408       .  A
C796        C801   1.397       .  A
C796        C854   1.446       .  S
C797        C921   1.409   1_554  A
C797        C798   1.420       .  A
C797        H802   1.080       .  S
C798        C799   1.418       .  A
C799        C925   1.394   1_554  A
C799        H803   1.078       .  S
C800        C924   1.393       .  A
C800        C801   1.393       .  A
C800        C852   1.438       .  S
C801        H804   1.085       .  S
O805       Mn831   2.100       .  S
C806        C871   1.440       .  S
C806        O839   1.271       .  A
C806        O836   1.271       .  A
O807       Mn814   2.164       .  S
O807       Mn825   2.131       .  S
O807       Mn829   2.164       .  S
O808       Mn842   2.099       .  S
O808        C818   1.271       .  A
O809       Mn825   2.099       .  S
O809        C832   1.271       .  A
O810       Mn829   2.097       .  S
O810        C837   1.251       .  A
O811       Mn831   1.962       .  S
O811        C827   1.216       .  S
C812        C867   1.433       .  S
C812        O815   1.251       .  A
C812        O838   1.215       .  S
O813       Mn814   2.165       .  S
O813       Mn847   2.132       .  S
O813       Mn829   2.164       .  S
Mn814       O819   2.098       .  S
O816       Mn823   2.102       .  S
O816        C818   1.272       .  A
C817        C862   1.430       .  S
C817        O843   1.250       .  A
C817        O830   1.216       .  S
C818        C874   1.442       .  S
O819        C844   1.250       .  A
O820       Mn823   2.132       .  S
O820       Mn842   2.131       .  S
O821       Mn825   1.961       .  S
O821       Mn847   1.961       .  S
O821        C844   1.215       .  S
C822        C858   1.444       .  S
C822        O824   1.272       .  A
Mn823       O836   2.098       .  S
O824       Mn847   2.103       .  S
Mn825       O841   2.100       .  S
Mn825       O835   1.964       .  S
O826       Mn831   2.099       .  S
C827        C856   1.431       .  S
C827        O845   1.251       .  A
C828        C860   1.441       .  S
C828        O841   1.271       .  A
O830       Mn833   1.963       .  S
Mn831       O849   1.960       .  S
C832        C864   1.441       .  S
Mn833       O840   2.100       .  S
Mn833       O848   2.102       .  S
Mn833       O838   1.964       .  S
C834        C855   1.442       .  S
C834        O850   1.271       .  A
O835       Mn847   1.963       .  S
O835        C837   1.216       .  S
C837        C872   1.431       .  S
O839       Mn842   2.099       .  S
C844        C869   1.430       .  S
O846        C851   1.250       .  A
Mn847       O850   2.101       .  S
O849        C851   1.215       .  S
C851        C853   1.431       .  S
C852        C853   1.204       .  T
C854        C855   1.210       .  T
C856        C857   1.204       .  T
C858        C859   1.211       .  T
C860        C861   1.209       .  T
C862        C863   1.204       .  T
C864        C865   1.210       .  T
C866        C867   1.205       .  T
C868        C869   1.203       .  T
C870        C871   1.209       .  T
C872        C873   1.204       .  T
C874        C875   1.210       .  T
C876        C877   1.407       .  A
C876        C881   1.396       .  A
C876       C1000   1.444       .  S
C877        C878   1.420       .  A
C877        H882   1.080       .  S
C878        C879   1.417       .  A
C878        C887   1.512       .  S
C879        C880   1.393       .  A
C879        H883   1.078       .  S
C880        C881   1.393       .  A
C880        C998   1.438       .  S
C881        H884   1.085       .  S
C885        C890   1.396       .  A
C885        C995   1.446       .  S
C886        C887   1.420       .  A
C886        H891   1.080       .  S
C887        C888   1.416       .  A
C888        H892   1.078       .  S
C889        C890   1.392       .  A
C889        C993   1.439       .  S
C890        H893   1.085       .  S
C894        C895   1.408       .  A
C894        C899   1.397       .  A
C894        C990   1.446       .  S
C895        C896   1.421       .  A
C895        H900   1.080       .  S
C896        C897   1.416       .  A
C896        C905   1.513       .  S
C897        C898   1.393       .  A
C897        H901   1.078       .  S
C898        C899   1.393       .  A
C898        C991   1.438       .  S
C899        H902   1.085       .  S
C903        C908   1.397       .  A
C903        C986   1.448       .  S
C904        C905   1.420       .  A
C904        H909   1.080       .  S
C905        C906   1.417       .  A
C906        H910   1.078       .  S
C907        C908   1.393       .  A
C907        C988   1.439       .  S
C908        H911   1.085       .  S
C912        C913   1.396       .  A
C912        C917   1.408       .  A
C912        C984   1.445       .  S
C913        C914   1.393       .  A
C913        H918   1.085       .  S
C914        C915   1.393       .  A
C914        C982   1.438       .  S
C915        C916   1.417       .  A
C915        H919   1.078       .  S
C916        C917   1.420       .  A
C916        C923   1.513       .  S
C917        H920   1.080       .  S
C921        C926   1.397       .  A
C921        C979   1.446       .  S
C922        C923   1.420       .  A
C922        H927   1.080       .  S
C923        C924   1.416       .  A
C924        H928   1.078       .  S
C925        C926   1.393       .  A
C925        C977   1.441       .  S
C926        H929   1.085       .  S
O930       Mn956   2.099       .  S
C931        C996   1.442       .  S
C931        O964   1.272       .  A
C931        O961   1.271       .  A
O932       Mn939   2.163       .  S
O932       Mn950   2.132       .  S
O932       Mn954   2.165       .  S
O933       Mn967   2.098       .  S
O933        C943   1.271       .  A
O934       Mn950   2.100       .  S
O934        C957   1.271       .  A
O935       Mn954   2.098       .  S
O935        C962   1.250       .  A
O936       Mn956   1.963       .  S
O936        C952   1.216       .  S
C937        C992   1.431       .  S
C937        O940   1.250       .  A
C937        O963   1.215       .  S
O938       Mn939   2.164       .  S
O938       Mn972   2.131       .  S
O938       Mn954   2.164       .  S
Mn939       O944   2.097       .  S
O941       Mn948   2.099       .  S
O941        C943   1.271       .  A
C942        C987   1.431       .  S
C942        O968   1.251       .  A
C942        O955   1.216       .  S
C943        C999   1.440       .  S
O944        C969   1.251       .  A
O945       Mn948   2.131       .  S
O945       Mn967   2.132       .  S
O946       Mn950   1.963       .  S
O946       Mn972   1.964       .  S
O946        C969   1.216       .  S
C947        C983   1.441       .  S
C947        O949   1.271       .  A
Mn948       O961   2.098       .  S
O949       Mn972   2.100       .  S
Mn950       O966   2.103       .  S
Mn950       O960   1.961       .  S
O951       Mn956   2.102       .  S
C952        C981   1.430       .  S
C952        O970   1.250       .  A
C953        C985   1.444       .  S
C953        O966   1.272       .  A
O955       Mn958   1.963       .  S
Mn956       O974   1.964       .  S
C957        C989   1.441       .  S
Mn958       O965   2.101       .  S
Mn958       O973   2.099       .  S
Mn958       O963   1.960       .  S
C959        C980   1.441       .  S
C959        O975   1.271       .  A
O960       Mn972   1.961       .  S
O960        C962   1.215       .  S
C962        C997   1.430       .  S
O964       Mn967   2.102       .  S
C969        C994   1.431       .  S
O971        C976   1.251       .  A
Mn972       O975   2.099       .  S
O974        C976   1.215       .  S
C976        C978   1.433       .  S
C977        C978   1.205       .  T
C979        C980   1.210       .  T
C981        C982   1.204       .  T
C983        C984   1.209       .  T
C985        C986   1.211       .  T
C987        C988   1.204       .  T
C989        C990   1.209       .  T
C991        C992   1.204       .  T
C993        C994   1.204       .  T
C995        C996   1.210       .  T
C997        C998   1.203       .  T
C999       C1000   1.209       .  T
