geometry optimzed in LAMMPS
_audit_creation_date              2020-11-30 
_audit_creation_method            'lammps2cif' 
_symmetry_space_group_name_H-M    'P1' 
_symmetry_Int_Tables_number       1 
_symmetry_cell_setting            triclinic 
loop_ 
_symmetry_equiv_pos_as_xyz 
  x,y,z 
_cell_length_a                    44.95073005 
_cell_length_b                    45.066028003830304 
_cell_length_c                    32.746437893700026 
_cell_angle_alpha                 91.36549084930854 
_cell_angle_beta                  88.55764558549616 
_cell_angle_gamma                 115.42637833531832 
loop_ 
_atom_site_label 
_atom_site_type_symbol 
_atom_site_fract_x 
_atom_site_fract_y 
_atom_site_fract_z 
_atom_site_charge 
O1          O  0.36105301  0.11944072  0.03108065    -0.80400
O2          O  0.35868376  0.23149874  0.95419947    -0.65100
O3          O  0.34074756  0.16763357  0.03457779    -1.11700
C4          C  0.25073625  0.10445847  0.95542280     1.06500
O5          O  0.30674159  0.22502056  0.95557503    -0.78300
O6          O  0.26777844  0.17963142  0.01209526    -0.65900
Ni7        Ni  0.37644288  0.16184172  0.05578006     1.34900
C8          C  0.25988988  0.15621949  0.03715177     0.85200
O9          O  0.38762040  0.23232048  0.02527619    -0.78900
O10         O  0.39303597  0.20485737  0.07901465    -0.89100
C11         C  0.33702191  0.24115114  0.94542109     0.84800
O12         O  0.40808878  0.17795789  0.01248504    -0.67300
O13         O  0.24974967  0.13224264  0.95278736    -0.86600
C14         C  0.40276692  0.17891329  0.97495388     0.85600
C15         C  0.39941077  0.23147679  0.06027298     1.07200
H16         H  0.32247480  0.16226805  0.94050409     0.39000
O17         O  0.31507996  0.16744534  0.96652187    -1.09300
O18         O  0.27326278  0.13628087  0.03628018    -0.65900
Ni19       Ni  0.30835778  0.13289825  0.00332527     1.26300
O20         O  0.37946464  0.18529757  0.96319157    -0.66200
O21         O  0.27495398  0.10056582  0.97005304    -0.78500
C22         C  0.33440740  0.09682897  0.04369217     0.85000
O23         O  0.30732604  0.09916684  0.03965560    -0.65600
Ni24       Ni  0.27966505  0.17797711  0.95602116     1.27400
Ni25       Ni  0.35124035  0.20007265  0.99484689     1.26100
H26         H  0.32999386  0.17339109  0.05726825     0.39500
O27         O  0.27199609  0.19061135  0.46219565    -0.80400
O28         O  0.40097730  0.19211572  0.53932658    -0.65100
O29         O  0.33096083  0.18420731  0.46905786    -1.11700
C30         C  0.26877598  0.09717977  0.56028487     1.06500
O31         O  0.38168976  0.13847198  0.53161782    -0.78300
O32         O  0.32358211  0.09149210  0.51175984    -0.65900
Ni33       Ni  0.31892528  0.21912776  0.46273796     1.34900
C34         C  0.32198034  0.09714921  0.47448866     0.85200
O35         O  0.39756010  0.22515229  0.47111138    -0.78900
O36         O  0.36461649  0.25017102  0.45912993    -0.89100
C37         C  0.40410747  0.16552515  0.54340093     0.84800
O38         O  0.31743392  0.22858981  0.52020113    -0.67300
O39         O  0.29554901  0.10404126  0.57902236    -0.86600
C40         C  0.34213895  0.23685691  0.54333430     0.85600
C41         C  0.39286410  0.24963871  0.45897918     1.07200
H42         H  0.32621303  0.16761397  0.55880931     0.39000
O43         O  0.33218441  0.15741008  0.53570105    -1.09300
O44         O  0.31523504  0.12037464  0.46348600    -0.65900
Ni45       Ni  0.29925909  0.14687604  0.49641113     1.26300
O46         O  0.36296200  0.22470909  0.53886643    -0.66200
O47         O  0.26772580  0.10924434  0.52560062    -0.78500
C48         C  0.25720778  0.16106195  0.44877883     0.85000
O49         O  0.26749288  0.13960145  0.45608228    -0.65600
Ni50       Ni  0.33889702  0.12200992  0.55600868     1.27400
Ni51       Ni  0.36627694  0.19071211  0.50436166     1.26100
H52         H  0.33597011  0.17797765  0.44218432     0.39500
O53         O  0.43258067  0.03772011  0.70670770    -0.74000
O54         O  0.39161870  0.47033447  0.79111257    -0.74000
O55         O  0.42648654  0.04302721  0.78813602    -0.74100
O56         O  0.39743178  0.46791942  0.70998868    -0.74100
O57         O  0.44354137  0.46554145  0.72366550    -0.74000
O58         O  0.47053054  0.03552148  0.80002566    -0.74000
O59         O  0.44087334  0.47539336  0.80554547    -0.74000
O60         O  0.47767020  0.03164790  0.71704066    -0.74100
Ni61       Ni  0.40974399  0.00504080  0.74924517     1.25400
Ni62       Ni  0.45953737  0.00194364  0.76121092     1.25400
C63         C  0.46355442  0.04659625  0.69905446     0.88200
C64         C  0.41058793  0.45883428  0.80698720     0.88100
C65         C  0.45598277  0.05374640  0.80232961     0.88200
C66         C  0.41608226  0.45285235  0.70584886     0.88300
O67         O  0.10608576  0.06557222  0.71229140    -0.74000
O68         O  0.06525080  0.10640886  0.78966814    -0.74000
O69         O  0.10120572  0.06848558  0.79496705    -0.74100
O70         O  0.06803276  0.10155830  0.70677071    -0.74100
O71         O  0.03332801  0.04980272  0.69682325    -0.74000
O72         O  0.04933552  0.03369298  0.80489836    -0.74000
O73         O  0.01937031  0.06653609  0.77003227    -0.74000
O74         O  0.06586206  0.01972637  0.73154105    -0.74100
Ni75       Ni  0.08795941  0.08832973  0.75089752     1.25400
Ni76       Ni  0.04016371  0.04065393  0.75084716     1.25400
C77         C  0.09201059  0.03380154  0.71120415     0.88200
C78         C  0.03341963  0.09235754  0.79080625     0.88100
C79         C  0.07943609  0.04244270  0.81208049     0.88200
C80         C  0.04205704  0.07978265  0.68952651     0.88300
O81         O  0.03764024  0.43338129  0.79450926    -0.74000
O82         O  0.46983253  0.39195390  0.71160117    -0.74000
O83         O  0.04276056  0.42703335  0.71346979    -0.74100
O84         O  0.46806953  0.39861516  0.79233405    -0.74100
O85         O  0.46533504  0.44433507  0.77794084    -0.74000
O86         O  0.03518961  0.47091343  0.70114136    -0.74000
O87         O  0.47454542  0.44081357  0.69625442    -0.74000
O88         O  0.03140089  0.47828991  0.78398182    -0.74100
Ni89       Ni  0.00486608  0.41045885  0.75267409     1.25400
Ni90       Ni  0.00153928  0.45999008  0.74008945     1.25400
C91         C  0.04643472  0.46422920  0.80189160     0.88200
C92         C  0.45785330  0.41057870  0.69600638     0.88100
C93         C  0.05356075  0.45649334  0.69928522     0.88200
C94         C  0.45296953  0.41722470  0.79637180     0.88300
C95         C  0.48436161  0.11856440  0.62579048     0.02700
C96         C  0.01877327  0.13137620  0.62085316     0.02700
C97         C  0.03583716  0.11657481  0.64071732    -0.17800
C98         C  0.01978025  0.08927325  0.66570388     0.02700
C99         C  0.48399630  0.07503839  0.67064184     0.02700
C100        C  0.46735167  0.09059974  0.65007615    -0.17800
H101        H  0.44082120  0.08117207  0.65319853     0.04800
H102        H  0.06249042  0.12728897  0.63763917     0.04800
C103        C  0.13356903  0.47714138  0.63992924     0.02700
C104        C  0.14915727  0.01181250  0.64308777     0.02700
C105        C  0.13507883  0.02864099  0.66703051    -0.17800
C106        C  0.10473180  0.01232322  0.68698600     0.02700
C107        C  0.08782309  0.47646089  0.68282785     0.02700
C108        C  0.10340609  0.45987734  0.66059206    -0.17800
H109        H  0.09091802  0.43337913  0.65706697     0.04800
H110        H  0.14793327  0.05520700  0.66933001     0.04800
C111        C  0.37723788  0.36324502  0.86052264     0.02700
C112        C  0.35786723  0.38110433  0.86334465     0.02700
C113        C  0.36922902  0.41151880  0.84411975    -0.17800
C114        C  0.39988775  0.42532520  0.82374500     0.02700
C115        C  0.42022990  0.40712384  0.82063709     0.02700
C116        C  0.40765456  0.37631541  0.83930973    -0.17800
H117        H  0.42167400  0.36185303  0.83724318     0.04800
H118        H  0.35462760  0.42539577  0.84672792     0.04800
C119        C  0.36227540  0.37614252  0.64221394     0.02700
C120        C  0.37952001  0.35611800  0.64241035     0.02700
C121        C  0.40940955  0.36782438  0.66312991    -0.17800
C122        C  0.42380304  0.39934925  0.68069171     0.02700
C123        C  0.40572297  0.41974185  0.68237629     0.02700
C124        C  0.37508105  0.40687300  0.66291186    -0.17800
H125        H  0.36122559  0.42148633  0.66264625     0.04800
H126        H  0.42262127  0.35260359  0.66396439     0.04800
C127        C  0.11968369  0.48423649  0.87184778     0.02700
C128        C  0.13258865  0.01847738  0.87706963     0.02700
C129        C  0.11717134  0.03578956  0.85919495    -0.17800
C130        C  0.08922829  0.02003852  0.83516298     0.02700
C131        C  0.07505604  0.48442745  0.82974219     0.02700
C132        C  0.09104776  0.46755917  0.84883371    -0.17800
H133        H  0.08150002  0.44111171  0.84542116     0.04800
H134        H  0.12797699  0.06232918  0.86288747     0.04800
C135        C  0.01108242  0.14811112  0.86101727     0.02700
C136        C  0.47633478  0.13266355  0.86344660     0.02700
C137        C  0.45909607  0.10287147  0.84226926    -0.17800
C138        C  0.47584384  0.08769362  0.81953353     0.02700
C139        C  0.01182656  0.10462389  0.81568679     0.02700
C140        C  0.02811367  0.13440590  0.83672847    -0.17800
H141        H  0.05476216  0.14719021  0.83474769     0.04800
H142        H  0.43250197  0.09046706  0.84553936     0.04800
O143        O  0.11824218  0.35870773  0.46935736    -0.80400
O144        O  0.23230522  0.36036402  0.54616799    -0.65100
O145        O  0.16894358  0.34213281  0.46459375    -1.11700
C146        C  0.10847021  0.24914429  0.54219058     1.06500
O147        O  0.22925692  0.31021224  0.53672794    -0.78300
O148        O  0.18271781  0.26770640  0.48486318    -0.65900
Ni149      Ni  0.16107174  0.37708380  0.44529980     1.34900
C150        C  0.15986803  0.26063787  0.45919243     0.85200
O151        O  0.23248958  0.39122847  0.47629987    -0.78900
O152        O  0.20454583  0.39657234  0.42295027    -0.89100
C153        C  0.24353922  0.33934772  0.55133940     0.84800
O154        O  0.17510143  0.40741299  0.48995020    -0.67300
O155        O  0.13709118  0.25005238  0.54645530    -0.86600
C156        C  0.17703089  0.40190741  0.52721440     0.85600
C157        C  0.23133093  0.40351115  0.44173118     1.07200
H158        H  0.16321931  0.32105853  0.55730393     0.39000
O159        O  0.16937762  0.31497741  0.53102923    -1.09300
O160        O  0.14027122  0.27440799  0.45956102    -0.65900
Ni161      Ni  0.13475279  0.30748356  0.49412136     1.26300
O162        O  0.18416604  0.37886434  0.53798377    -0.66200
O163        O  0.10322973  0.27205979  0.52594204    -0.78500
C164        C  0.09676926  0.33209295  0.45511968     0.85000
O165        O  0.10054788  0.30570088  0.45782827    -0.65600
Ni166      Ni  0.18250946  0.28123115  0.54041070     1.27400
Ni167      Ni  0.20109686  0.35302844  0.50491765     1.26100
H168        H  0.17582207  0.33276989  0.44143260     0.39500
O169        O  0.19048848  0.27464104  0.04479496    -0.80400
O170        O  0.19345055  0.40016046  0.95704451    -0.65100
O171        O  0.18342812  0.33290634  0.03307395    -1.11700
C172        C  0.09689999  0.26820992  0.94210368     1.06500
O173        O  0.13975927  0.38216358  0.96452972    -0.78300
O174        O  0.09165999  0.32598877  0.98768256    -0.65900
Ni175      Ni  0.21816654  0.32159895  0.04507911     1.34900
C176        C  0.09630303  0.32355524  0.02513811     0.85200
O177        O  0.22551359  0.39950028  0.02712603    -0.78900
O178        O  0.24865448  0.36716669  0.04889801    -0.89100
C179        C  0.16711657  0.40364028  0.95187820     0.84800
O180        O  0.23196127  0.31985636  0.98975557    -0.67300
O181        O  0.10330701  0.29456341  0.92275382    -0.86600
C182        C  0.23905985  0.34207816  0.96312063     0.85600
C183        C  0.24882778  0.39525424  0.04391326     1.07200
H184        H  0.16767150  0.32531286  0.94255218     0.39000
O185        O  0.15746038  0.33197886  0.96502776    -1.09300
O186        O  0.11884665  0.31593802  0.03687492    -0.65900
Ni187      Ni  0.14653406  0.30011520  0.00585702     1.26300
O188        O  0.22518394  0.36151652  0.96237174    -0.66200
O189        O  0.10947935  0.26771604  0.97662895    -0.78500
C190        C  0.16030090  0.25882335  0.05555371     0.85000
O191        O  0.13887088  0.26902965  0.04745848    -0.65600
Ni192      Ni  0.12233774  0.33857893  0.94315338     1.27400
Ni193      Ni  0.19107860  0.36689149  0.99496817     1.26100
H194        H  0.17628360  0.33900393  0.05869395     0.39500
O195        O  0.46771249  0.02165389  0.21719784    -0.74000
O196        O  0.02454318  0.05895182  0.30474449    -0.74000
O197        O  0.46411328  0.02955969  0.29983824    -0.74100
O198        O  0.03380275  0.05540144  0.22297507    -0.74100
O199        O  0.03150632  0.10130714  0.20851277    -0.74000
O200        O  0.45659412  0.07331611  0.28685216    -0.74000
O201        O  0.02965651  0.10798005  0.28954465    -0.74000
O202        O  0.46207501  0.06677026  0.20590485    -0.74100
Ni203      Ni  0.49762918  0.04000932  0.26091040     1.25400
Ni204      Ni  0.49470754  0.08967400  0.24801934     1.25400
C205        C  0.45301657  0.03581678  0.19886174     0.88200
C206        C  0.04126976  0.08914017  0.30548263     0.88100
C207        C  0.44572573  0.04392561  0.30123880     0.88200
C208        C  0.04623593  0.08240260  0.20428096     0.88300
O209        O  0.43373669  0.48018043  0.27095486    -0.74000
O210        O  0.47936835  0.43295967  0.23213126    -0.74000
O211        O  0.44942660  0.46603166  0.19752045    -0.74100
O212        O  0.46613648  0.44967592  0.30553277    -0.74100
O213        O  0.43098083  0.39810704  0.29579154    -0.74000
O214        O  0.39752127  0.43154097  0.20775099    -0.74000
O215        O  0.43316921  0.39326974  0.21296355    -0.74000
O216        O  0.39319345  0.43461078  0.29036445    -0.74100
Ni217      Ni  0.45897259  0.45898675  0.25152698     1.25400
Ni218      Ni  0.41090206  0.41158470  0.25181445     1.25400
C219        C  0.40746210  0.46636497  0.29106270     0.88200
C220        C  0.46498594  0.40713757  0.21157116     0.88100
C221        C  0.41930787  0.45744920  0.19036489     0.88200
C222        C  0.45735370  0.41962312  0.31264233     0.88300
C223        C  0.36581990  0.02367563  0.36024164     0.02700
C224        C  0.35034374  0.48893842  0.35785411     0.02700
C225        C  0.36443986  0.47193241  0.33444302    -0.17800
C226        C  0.39471734  0.48810715  0.31440501     0.02700
C227        C  0.41147159  0.02402186  0.31765304     0.02700
C228        C  0.39585237  0.04077586  0.33928609    -0.17800
H229        H  0.40839174  0.06729820  0.34240781     0.04800
H230        H  0.35170357  0.44533111  0.33277148     0.04800
O231        O  0.02148885  0.46763019  0.28427369    -0.74000
O232        O  0.05754986  0.02377517  0.19545848    -0.74000
O233        O  0.02797318  0.46366236  0.20127244    -0.74100
O234        O  0.05501721  0.03360757  0.27738274    -0.74100
O235        O  0.10145321  0.03154153  0.29011007    -0.74000
O236        O  0.07195945  0.45597669  0.21288230    -0.74000
O237        O  0.10690077  0.02865565  0.20898800    -0.74000
O238        O  0.06684218  0.46195407  0.29418157    -0.74100
Ni239      Ni  0.03913704  0.49725341  0.23994856     1.25400
Ni240      Ni  0.08908950  0.49427265  0.25125183     1.25400
C241        C  0.03590591  0.45290920  0.30209919     0.88200
C242        C  0.08786634  0.04018074  0.19337130     0.88100
C243        C  0.04234000  0.44529664  0.19908100     0.88200
C244        C  0.08264560  0.04641529  0.29471798     0.88300
C245        C  0.38097974  0.01614223  0.12702117     0.02700
C246        C  0.36715862  0.48176087  0.12294376     0.02700
C247        C  0.38166634  0.46416409  0.14242275    -0.17800
C248        C  0.40966098  0.47981837  0.16659301     0.02700
C249        C  0.42449182  0.01556327  0.17091412     0.02700
C250        C  0.40938297  0.03264025  0.15045126    -0.17800
H251        H  0.41950528  0.05917928  0.15302296     0.04800
H252        H  0.37029607  0.43757054  0.13955744     0.04800
C253        C  0.11958704  0.14160314  0.36078429     0.02700
C254        C  0.13696797  0.12172927  0.35896502     0.02700
C255        C  0.12389413  0.09161908  0.33730634    -0.17800
C256        C  0.09305662  0.07928487  0.31857572     0.02700
C257        C  0.07503634  0.09980659  0.32157298     0.02700
C258        C  0.08923723  0.13056679  0.34136733    -0.17800
H259        H  0.07562867  0.14544350  0.34360547     0.04800
H260        H  0.13822966  0.07747780  0.33526350     0.04800
C261        C  0.12103560  0.13527258  0.13796094     0.02700
C262        C  0.14036709  0.11732063  0.13543274     0.02700
C263        C  0.12900460  0.08702201  0.15507672    -0.17800
C264        C  0.09859951  0.07355727  0.17604034     0.02700
C265        C  0.07853088  0.09199928  0.17925928     0.02700
C266        C  0.09086638  0.12249196  0.15973624    -0.17800
H267        H  0.07690561  0.13701278  0.16171800     0.04800
H268        H  0.14347271  0.07300712  0.15252150     0.04800
C269        C  0.48197937  0.36676376  0.37826246     0.02700
C270        C  0.01651555  0.38044123  0.37386554     0.02700
C271        C  0.03299611  0.40888724  0.35024894    -0.17800
C272        C  0.01585557  0.42432440  0.33035750     0.02700
C273        C  0.48005651  0.40971138  0.33541758     0.02700
C274        C  0.46447012  0.38166847  0.35936795    -0.17800
H275        H  0.43782299  0.37056771  0.36260395     0.04800
H276        H  0.05956596  0.41884513  0.34712702     0.04800
C277        C  0.02073079  0.36661738  0.13745227     0.02700
C278        C  0.48599759  0.35137368  0.14057634     0.02700
C279        C  0.46943268  0.36508993  0.16546390    -0.17800
C280        C  0.48617168  0.39469758  0.18650411     0.02700
C281        C  0.02212236  0.41134775  0.18228123     0.02700
C282        C  0.03841277  0.39610292  0.15899233    -0.17800
H283        H  0.06499499  0.40833586  0.15541698     0.04800
H284        H  0.44278498  0.35246319  0.16787657     0.04800
C285        C  0.17149933  0.22326117  0.10418779    -0.20800
C286        C  0.15002012  0.22732787  0.07678951    -0.08900
C287        C  0.11883997  0.20128017  0.07038781     0.30000
C288        C  0.10967854  0.17160614  0.09057366    -0.20800
C289        C  0.13123200  0.16741918  0.11773897    -0.08900
C290        C  0.16207107  0.19376611  0.12498239     0.30000
F291        F  0.18286771  0.19114200  0.15249383    -0.19400
H292        H  0.19541926  0.24320918  0.11006801     0.18300
H293        H  0.08585029  0.15157355  0.08449156     0.18300
F294        F  0.09759016  0.20411307  0.04375597    -0.19400
C295        C  0.06326466  0.34531297  0.12418238    -0.20800
C296        C  0.03888444  0.35368688  0.10931775    -0.08900
C297        C  0.03271055  0.35077739  0.06728168     0.30000
C298        C  0.05036905  0.33939362  0.04075593    -0.20800
C299        C  0.07522843  0.33135453  0.05521617    -0.08900
C300        C  0.08134191  0.33422341  0.09748584     0.30000
F301        F  0.10535939  0.32735018  0.11296817    -0.19400
H302        H  0.06848837  0.34768746  0.15651809     0.18300
H303        H  0.04519205  0.33796308  0.00846309     0.18300
F304        F  0.01060306  0.36033464  0.05153269    -0.19400
C305        C  0.30655029  0.46258368  0.11217385    -0.20800
C306        C  0.33692176  0.46336288  0.09908061    -0.08900
C307        C  0.33816462  0.44532758  0.06412256     0.30000
C308        C  0.30925237  0.42550876  0.04386088    -0.20800
C309        C  0.27863654  0.42329878  0.05810768    -0.08900
C310        C  0.27746843  0.44255282  0.09188233     0.30000
F311        F  0.24809149  0.43976720  0.10730185    -0.19400
H312        H  0.30522694  0.47627977  0.13924424     0.18300
H313        H  0.31049446  0.41037855  0.01823997     0.18300
F314        F  0.36724308  0.44607842  0.05045644    -0.19400
C315        C  0.14861061  0.20228503  0.44988246    -0.20800
C316        C  0.15291108  0.23187859  0.43188886    -0.08900
C317        C  0.14636096  0.23184243  0.39016303     0.30000
C318        C  0.13595311  0.20255605  0.36694622    -0.20800
C319        C  0.13124188  0.17283558  0.38525189    -0.08900
C320        C  0.13714386  0.17297679  0.42722102     0.30000
F321        F  0.13075823  0.14455302  0.44666278    -0.19400
H322        H  0.15255439  0.20154897  0.48228042     0.18300
H323        H  0.13137083  0.20297503  0.33470125     0.18300
F324        F  0.15021690  0.26002572  0.37194386    -0.19400
C325        C  0.05285620  0.35094862  0.37194021    -0.22600
C326        C  0.03550108  0.36539845  0.39473698    -0.08900
C327        C  0.03454643  0.36356917  0.43755998     0.30000
C328        C  0.05123932  0.34818926  0.45712619    -0.20800
C329        C  0.06936323  0.33451390  0.43453367    -0.08900
C330        C  0.06963319  0.33550538  0.39167272     0.30000
F331        F  0.08843916  0.32414170  0.36916883    -0.19400
H332        H  0.05361979  0.35193233  0.33889639     0.18300
H333        H  0.05206777  0.34909097  0.49020298     0.18300
F334        F  0.01867073  0.37797506  0.46051176    -0.19400
C335        C  0.26128039  0.44856870  0.39263224    -0.20800
C336        C  0.26224243  0.42694308  0.42238674    -0.08900
C337        C  0.29268447  0.42723391  0.43202977     0.30000
C338        C  0.32121943  0.44784937  0.41111836    -0.20800
C339        C  0.32002791  0.46892404  0.38101103    -0.08900
C340        C  0.28999405  0.46954308  0.37217812     0.30000
F341        F  0.28833797  0.48962059  0.34295739    -0.19400
H342        H  0.23820321  0.44903868  0.38489397     0.18300
H343        H  0.34439806  0.44730436  0.41819428     0.18300
F344        F  0.29480155  0.40681284  0.46046239    -0.19400
C345        C  0.05385777  0.17821243  0.91229047    -0.20800
C346        C  0.03088162  0.17844925  0.88423181    -0.08900
C347        C  0.02893810  0.20799131  0.87631029     0.30000
C348        C  0.05007518  0.23697939  0.89593614    -0.20800
C349        C  0.07355832  0.23695635  0.92354558    -0.08900
C350        C  0.07506246  0.20716684  0.93186307     0.30000
F351        F  0.09806184  0.20623263  0.95720054    -0.19400
H352        H  0.05580274  0.15557852  0.91831941     0.18300
H353        H  0.04839050  0.25959475  0.88905755     0.18300
F354        F  0.00767353  0.20905907  0.84831700    -0.19400
C355        C  0.13847722  0.46760606  0.93450657    -0.20800
C356        C  0.13557790  0.46577897  0.89186901    -0.08900
C357        C  0.14939862  0.44796573  0.86887182     0.30000
C358        C  0.16447844  0.43090852  0.88867115    -0.20800
C359        C  0.16599458  0.43161116  0.93147963    -0.08900
C360        C  0.15367024  0.45084211  0.95414692     0.30000
F361        F  0.15365524  0.45090155  0.99561679    -0.19400
H362        H  0.12806159  0.48133066  0.95269705     0.18300
H363        H  0.17261378  0.41511514  0.87085254     0.18300
F364        F  0.14749895  0.44639473  0.82751705    -0.19400
C365        C  0.33134022  0.35911210  0.57687160    -0.20800
C366        C  0.33171285  0.36670906  0.61879441    -0.08900
C367        C  0.30301280  0.36591589  0.63793775     0.30000
C368        C  0.27451404  0.35755576  0.61540439    -0.20800
C369        C  0.27401633  0.34905381  0.57392880    -0.08900
C370        C  0.30247386  0.34963037  0.55472783     0.30000
F371        F  0.30248747  0.34168049  0.51449330    -0.19400
H372        H  0.35338719  0.36027720  0.56139292     0.18300
H373        H  0.25255275  0.35699343  0.63050640     0.18300
F374        F  0.30237061  0.37259984  0.67851529    -0.19400
C375        C  0.29718115  0.36653150  0.87068669    -0.20800
C376        C  0.32669704  0.36966535  0.88825678    -0.08900
C377        C  0.32637196  0.36242560  0.92986429     0.30000
C378        C  0.29707674  0.35130991  0.95282340    -0.20800
C379        C  0.26767420  0.34844582  0.93549369    -0.08900
C380        C  0.26794918  0.35632749  0.89416005     0.30000
F381        F  0.24004610  0.35411197  0.87655754    -0.19400
H382        H  0.29686743  0.37214810  0.83876935     0.18300
H383        H  0.29776355  0.34660450  0.98500474     0.18300
F384        F  0.35465158  0.36732379  0.94880947    -0.19400
C385        C  0.15370296  0.43347223  0.62662926    -0.20800
C386        C  0.14661358  0.45879008  0.61201477    -0.08900
C387        C  0.15088623  0.46578578  0.57016411     0.30000
C388        C  0.16266351  0.44844952  0.54377803    -0.20800
C389        C  0.16928263  0.42264184  0.55784881    -0.08900
C390        C  0.16483783  0.41539731  0.59984912     0.30000
F391        F  0.17006821  0.39025450  0.61485022    -0.19400
H392        H  0.15017934  0.42744708  0.65874488     0.18300
H393        H  0.16528741  0.45454096  0.51169359     0.18300
F394        F  0.14206512  0.48830142  0.55422436    -0.19400
C395        C  0.08062532  0.18867805  0.54547752    -0.20800
C396        C  0.08078878  0.21904367  0.55653468    -0.08900
C397        C  0.05802795  0.22009947  0.58595335     0.30000
C398        C  0.03708739  0.19133530  0.60613900    -0.20800
C399        C  0.03807356  0.16116066  0.59638504    -0.08900
C400        C  0.05928906  0.15993907  0.56486408     0.30000
F401        F  0.06009435  0.13106960  0.55375479    -0.19400
H402        H  0.09797589  0.18743637  0.52270433     0.18300
H403        H  0.02112726  0.19286190  0.63059709     0.18300
F404        F  0.05785011  0.24916867  0.59736726    -0.19400
C405        C  0.43384996  0.16566422  0.60566648    -0.20800
C406        C  0.43218949  0.16369450  0.56289840    -0.08900
C407        C  0.44918785  0.14838326  0.54100759     0.30000
C408        C  0.46603968  0.13373531  0.56168773    -0.20800
C409        C  0.46603806  0.13394630  0.60450857    -0.08900
C410        C  0.45063733  0.15080472  0.62644449     0.30000
F411        F  0.95143130  0.15238104  0.66786257    -0.19400
H412        H  0.41999979  0.17640237  0.62305173     0.18300
H413        H  0.47837060  0.12137419  0.54435062     0.18300
F414        F  0.44724076  0.14538106  0.49968148    -0.19400
C415        C  0.33702354  0.08656307  0.40290609    -0.20800
C416        C  0.32985761  0.07672062  0.44383459    -0.08900
C417        C  0.33411913  0.04909019  0.45639576     0.30000
C418        C  0.34637833  0.03275375  0.42923724    -0.20800
C419        C  0.35313022  0.04215343  0.38833053    -0.08900
C420        C  0.34852765  0.06941481  0.37529257     0.30000
F421        F  0.35542034  0.07962191  0.33607813    -0.19400
H422        H  0.33453686  0.10801055  0.39251316     0.18300
H423        H  0.35103598  0.01280808  0.44055806     0.18300
F424        F  0.32719226  0.03804418  0.49528576    -0.19400
C425        C  0.23839046  0.05192069  0.60892379    -0.20800
C426        C  0.23774722  0.07398299  0.57960336    -0.08900
C427        C  0.20746649  0.07411745  0.57004810     0.30000
C428        C  0.17881037  0.05358662  0.59079074    -0.20800
C429        C  0.17962875  0.03189240  0.62027691    -0.08900
C430        C  0.20950564  0.03086536  0.62900349     0.30000
F431        F  0.21087381  0.01035458  0.65782744    -0.19400
H432        H  0.26133802  0.05110779  0.61652354     0.18300
H433        H  0.15578564  0.05453417  0.58388105     0.18300
F434        F  0.20560002  0.09475776  0.54174342    -0.19400
C435        C  0.44277993  0.27807812  0.41443750    -0.20800
C436        C  0.42051864  0.27969336  0.44419326    -0.08900
C437        C  0.42099706  0.31039259  0.45458168     0.30000
C438        C  0.44221033  0.33860463  0.43426852    -0.20800
C439        C  0.46300985  0.33686425  0.40269196    -0.08900
C440        C  0.46361489  0.30640692  0.39330213     0.30000
F441        F  0.48250455  0.30355981  0.36188504    -0.19400
H442        H  0.44227683  0.25458467  0.40543538     0.18300
H443        H  0.44151077  0.36179242  0.44212489     0.18300
F444        F  0.39963812  0.31287653  0.48299978    -0.19400
C445        C  0.19439084  0.16289129  0.37537885    -0.20800
C446        C  0.16862988  0.13137766  0.38028195    -0.08900
C447        C  0.17267112  0.10944240  0.40704855     0.30000
C448        C  0.20165776  0.11918637  0.42897067    -0.20800
C449        C  0.22677193  0.15114975  0.42538348    -0.08900
C450        C  0.22298574  0.17296632  0.39826113     0.30000
F451        F  0.24721848  0.20373728  0.39315164    -0.19400
H452        H  0.19211324  0.17990489  0.35425994     0.18300
H453        H  0.20414750  0.10196745  0.44958837     0.18300
F454        F  0.14810594  0.07898748  0.41316259    -0.19400
C455        C  0.38308409  0.28906563  0.57231034    -0.20800
C456        C  0.35037005  0.26506073  0.57223315    -0.08900
C457        C  0.32675503  0.27051581  0.59627879     0.30000
C458        C  0.33618280  0.29941986  0.62034648    -0.20800
C459        C  0.36888468  0.32415983  0.61892934    -0.08900
C460        C  0.39208130  0.31847351  0.59417465     0.30000
F461        F  0.42338149  0.34201552  0.58951783    -0.19400
H462        H  0.40165429  0.28581958  0.55344704     0.18300
H463        H  0.31781109  0.30273501  0.63946436     0.18300
F464        F  0.29483863  0.24790404  0.59678646    -0.19400
C465        C  0.19330034  0.03824581  0.88639106    -0.20800
C466        C  0.16297409  0.03710952  0.90027564    -0.08900
C467        C  0.16170830  0.05430023  0.93599267     0.30000
C468        C  0.19061365  0.07372666  0.95631492    -0.20800
C469        C  0.22117954  0.07638693  0.94128207    -0.08900
C470        C  0.22237913  0.05784314  0.90680780     0.30000
F471        F  0.25173419  0.06090418  0.89097170    -0.19400
H472        H  0.19452681  0.02501023  0.85883262     0.18300
H473        H  0.18941047  0.08828960  0.98259238     0.18300
F474        F  0.13260949  0.05300931  0.95045546    -0.19400
C475        C  0.20071225  0.13038878  0.12844362    -0.20800
C476        C  0.17167731  0.12860393  0.11084984    -0.08900
C477        C  0.17256178  0.13658975  0.06943367     0.30000
C478        C  0.20203271  0.14752330  0.04689055    -0.20800
C479        C  0.23096373  0.14923670  0.06433773    -0.08900
C480        C  0.23003754  0.14018959  0.10526986     0.30000
F481        F  0.25740096  0.14094314  0.12278281    -0.19400
H482        H  0.20056768  0.12397398  0.16013668     0.18300
H483        H  0.20183792  0.15303722  0.01489267     0.18300
F484        F  0.14464299  0.13246682  0.05017270    -0.19400
C485        C  0.44499119  0.15792173  0.96009544    -0.20800
C486        C  0.42344196  0.17026437  0.94515956    -0.08900
C487        C  0.41991639  0.17071404  0.90252578     0.30000
C488        C  0.43698532  0.15827891  0.87591886    -0.20800
C489        C  0.45797157  0.14557201  0.89131973    -0.08900
C490        C  0.46182908  0.14554267  0.93364936     0.30000
F491        F  0.48124744  0.13264731  0.94953470    -0.19400
H492        H  0.44814054  0.15677757  0.99260907     0.18300
H493        H  0.43395496  0.15864879  0.84325510     0.18300
F494        F  0.39980903  0.18272755  0.88653196    -0.19400
C495        C  0.34993119  0.05086084  0.12749711    -0.20800
C496        C  0.36632467  0.03502684  0.10552689    -0.08900
C497        C  0.36740544  0.03589690  0.06269247     0.30000
C498        C  0.35302487  0.05308660  0.04223319    -0.20800
C499        C  0.33733098  0.06968007  0.06405456    -0.08900
C500        C  0.33556904  0.06822000  0.10689838     0.30000
F501        F  0.32259014  0.08592286  0.12879793    -0.19400
H502        H  0.34884953  0.05026192  0.16056380     0.18300
H503        H  0.35602437  0.05530064  0.00933764     0.18300
F504        F  0.38368974  0.52134099  0.04080747    -0.19400
C505        C  0.44479331  0.26217832  0.10845231    -0.20800
C506        C  0.42220873  0.26252821  0.07967055    -0.08900
C507        C  0.42178222  0.29258580  0.07002390     0.30000
C508        C  0.44317887  0.32149700  0.08943331    -0.20800
C509        C  0.46563591  0.32098618  0.11807449    -0.08900
C510        C  0.46646473  0.29121061  0.12742359     0.30000
F511        F  0.98743939  0.29012474  0.15582768    -0.19400
H512        H  0.44570233  0.23937493  0.11630732     0.18300
H513        H  0.44211312  0.34439548  0.08241906     0.18300
F514        F  0.40002324  0.29395910  0.04299345    -0.19400
C515        C  0.38865276  0.32692899  0.90747379    -0.20800
C516        C  0.36697148  0.33116429  0.88063840    -0.08900
C517        C  0.33566760  0.30523672  0.87441450     0.30000
C518        C  0.32573940  0.27629873  0.89644147    -0.20800
C519        C  0.34732533  0.27228355  0.92366847    -0.08900
C520        C  0.37910417  0.29770037  0.92858655     0.30000
F521        F  0.40067984  0.29467025  0.95453737    -0.19400
H522        H  0.41286296  0.34661976  0.91268624     0.18300
H523        H  0.30143721  0.25669095  0.89149830     0.18300
F524        F  0.31486039  0.30777770  0.84684903    -0.19400
O525        O  0.36105306  0.61944060  0.03108036    -0.80400
O526        O  0.35868372  0.73149868  0.95419955    -0.65100
O527        O  0.34074763  0.66763344  0.03457777    -1.11700
C528        C  0.25073618  0.60445839  0.95542298     1.06500
O529        O  0.30674156  0.72502049  0.95557524    -0.78300
O530        O  0.26777854  0.67963136  0.01209551    -0.65900
Ni531      Ni  0.37644297  0.66184156  0.05577990     1.34900
C532        C  0.25988998  0.65621942  0.03715199     0.85200
O533        O  0.38762045  0.73232034  0.02527621    -0.78900
O534        O  0.39303608  0.70485718  0.07901459    -0.89100
C535        C  0.33702186  0.74115108  0.94542124     0.84800
O536        O  0.40808884  0.67795782  0.01248488    -0.67300
O537        O  0.24974963  0.63224258  0.95278758    -0.86600
C538        C  0.40276697  0.67891326  0.97495373     0.85600
C539        C  0.39941084  0.73147662  0.06027297     1.07200
H540        H  0.32247474  0.66226797  0.94050412     0.39000
O541        O  0.31507994  0.66744525  0.96652193    -1.09300
O542        O  0.27326284  0.63628076  0.03628033    -0.65900
Ni543      Ni  0.30835779  0.63289814  0.00332530     1.26300
O544        O  0.37946464  0.68529750  0.96319147    -0.66200
O545        O  0.27495392  0.60056572  0.97005312    -0.78500
C546        C  0.33440750  0.59682884  0.04369199     0.85000
O547        O  0.30732612  0.59916671  0.03965556    -0.65600
Ni548      Ni  0.27966502  0.67797704  0.95602137     1.27400
Ni549      Ni  0.35124037  0.70007255  0.99484692     1.26100
H550        H  0.32999394  0.67339097  0.05726833     0.39500
O551        O  0.27199613  0.69061135  0.46219549    -0.80400
O552        O  0.40097728  0.69211541  0.53932620    -0.65100
O553        O  0.33096083  0.68420726  0.46905763    -1.11700
C554        C  0.26877597  0.59717979  0.56028469     1.06500
O555        O  0.38168954  0.63847169  0.53161710    -0.78300
O556        O  0.32358172  0.59149187  0.51175953    -0.65900
Ni557      Ni  0.31892531  0.71912774  0.46273786     1.34900
C558        C  0.32198019  0.59714907  0.47448834     0.85200
O559        O  0.39756010  0.72515217  0.47111112    -0.78900
O560        O  0.36461651  0.75017097  0.45912986    -0.89100
C561        C  0.40410735  0.66552476  0.54340031     0.84800
O562        O  0.31743397  0.72858969  0.52020106    -0.67300
O563        O  0.29554900  0.60404130  0.57902217    -0.86600
C564        C  0.34213901  0.73685677  0.54333420     0.85600
C565        C  0.39286411  0.74963861  0.45897902     1.07200
H566        H  0.32621303  0.66761385  0.55880903     0.39000
O567        O  0.33218438  0.65740997  0.53570075    -1.09300
O568        O  0.31523504  0.62037461  0.46348567    -0.65900
Ni569      Ni  0.29925908  0.64687598  0.49641086     1.26300
O570        O  0.36296207  0.72470895  0.53886625    -0.66200
O571        O  0.26772578  0.60924428  0.52560038    -0.78500
C572        C  0.25720784  0.66106197  0.44877858     0.85000
O573        O  0.26749290  0.63960145  0.45608201    -0.65600
Ni574      Ni  0.33889693  0.62200976  0.55600827     1.27400
Ni575      Ni  0.36627693  0.69071197  0.50436138     1.26100
H576        H  0.33597008  0.67797763  0.44218405     0.39500
O577        O  0.43258079  0.53772020  0.70670778    -0.74000
O578        O  0.39161859  0.97033438  0.79111251    -0.74000
O579        O  0.42648669  0.54302729  0.78813609    -0.74100
O580        O  0.39743169  0.96791930  0.70998863    -0.74100
O581        O  0.44354129  0.96554137  0.72366549    -0.74000
O582        O  0.47053072  0.53552157  0.80002564    -0.74000
O583        O  0.44087322  0.97539326  0.80554544    -0.74000
O584        O  0.47767032  0.53164795  0.71704064    -0.74100
Ni585      Ni  0.40974411  0.50504090  0.74924523     1.25400
Ni586      Ni  0.45953749  0.50194372  0.76121093     1.25400
C587        C  0.46355452  0.54659632  0.69905450     0.88200
C588        C  0.41058781  0.95883417  0.80698714     0.88100
C589        C  0.45598294  0.55374648  0.80232963     0.88200
C590        C  0.41608218  0.95285225  0.70584883     0.88300
O591        O  0.10608578  0.56557221  0.71229119    -0.74000
O592        O  0.06525087  0.60640894  0.78966788    -0.74000
O593        O  0.10120576  0.56848561  0.79496685    -0.74100
O594        O  0.06803279  0.60155829  0.70677044    -0.74100
O595        O  0.03332806  0.54980269  0.69682305    -0.74000
O596        O  0.04933555  0.53369304  0.80489819    -0.74000
O597        O  0.01937037  0.56653617  0.77003205    -0.74000
O598        O  0.06586209  0.51972637  0.73154091    -0.74100
Ni599      Ni  0.08795945  0.58832974  0.75089728     1.25400
Ni600      Ni  0.04016375  0.54065396  0.75084699     1.25400
C601        C  0.09201060  0.53380152  0.71120397     0.88200
C602        C  0.03341971  0.59235764  0.79080601     0.88100
C603        C  0.07943611  0.54244276  0.81208033     0.88200
C604        C  0.04205708  0.57978261  0.68952624     0.88300
O605        O  0.03764019  0.93338123  0.79450937    -0.74000
O606        O  0.46983253  0.89195386  0.71160111    -0.74000
O607        O  0.04276053  0.92703335  0.71346991    -0.74100
O608        O  0.46806948  0.89861508  0.79233398    -0.74100
O609        O  0.46533500  0.94433501  0.77794087    -0.74000
O610        O  0.03518958  0.97091343  0.70114149    -0.74000
O611        O  0.47454537  0.94081352  0.69625444    -0.74000
O612        O  0.03140087  0.97828986  0.78398195    -0.74100
Ni613      Ni  0.00486604  0.91045882  0.75267417     1.25400
Ni614      Ni  0.00153924  0.95999006  0.74008959     1.25400
C615        C  0.04643469  0.96422914  0.80189172     0.88200
C616        C  0.45785329  0.91057866  0.69600635     0.88100
C617        C  0.05356072  0.95649335  0.69928536     0.88200
C618        C  0.45296946  0.91722461  0.79637175     0.88300
C619        C  0.48436153  0.61856438  0.62579055     0.02700
C620        C  0.01877333  0.63137599  0.62085261     0.02700
C621        C  0.03583722  0.61657461  0.64071680    -0.17800
C622        C  0.01978030  0.58927316  0.66570354     0.02700
C623        C  0.48399637  0.57503845  0.67064187     0.02700
C624        C  0.46735165  0.59059972  0.65007619    -0.17800
H625        H  0.44082118  0.58117197  0.65319853     0.04800
H626        H  0.06249047  0.62728872  0.63763860     0.04800
C627        C  0.13356906  0.97714139  0.63992951     0.02700
C628        C  0.14915725  0.51181250  0.64308753     0.02700
C629        C  0.13507880  0.52864097  0.66703028    -0.17800
C630        C  0.10473179  0.51232321  0.68698581     0.02700
C631        C  0.08782308  0.97646091  0.68282804     0.02700
C632        C  0.10340610  0.95987736  0.66059230    -0.17800
H633        H  0.09091803  0.93337914  0.65706722     0.04800
H634        H  0.14793325  0.55520699  0.66932978     0.04800
C635        C  0.37723768  0.86324483  0.86052243     0.02700
C636        C  0.35786704  0.88110416  0.86334443     0.02700
C637        C  0.36922886  0.91151864  0.84411957    -0.17800
C638        C  0.39988762  0.92532506  0.82374489     0.02700
C639        C  0.42022977  0.90712371  0.82063698     0.02700
C640        C  0.40765438  0.87631524  0.83930954    -0.17800
H641        H  0.42167381  0.86185285  0.83724300     0.04800
H642        H  0.35462746  0.92539562  0.84672775     0.04800
C643        C  0.36227537  0.87614235  0.64221391     0.02700
C644        C  0.37952002  0.85611788  0.64241029     0.02700
C645        C  0.40940957  0.86782430  0.66312987    -0.17800
C646        C  0.42380302  0.89934918  0.68069166     0.02700
C647        C  0.40572291  0.91974174  0.68237625     0.02700
C648        C  0.37508099  0.90687284  0.66291184    -0.17800
H649        H  0.36122550  0.92148614  0.66264624     0.04800
H650        H  0.42262131  0.85260354  0.66396439     0.04800
C651        C  0.11968373  0.98423646  0.87184782     0.02700
C652        C  0.13258856  0.51847741  0.87706970     0.02700
C653        C  0.11717126  0.53578959  0.85919498    -0.17800
C654        C  0.08922828  0.52003857  0.83516289     0.02700
C655        C  0.07505603  0.98442739  0.82974230     0.02700
C656        C  0.09104776  0.96755912  0.84883381    -0.17800
H657        H  0.08150000  0.94111165  0.84542132     0.04800
H658        H  0.12797689  0.56232921  0.86288754     0.04800
C659        C  0.01108250  0.64811129  0.86101698     0.02700
C660        C  0.47633496  0.63266368  0.86344649     0.02700
C661        C  0.45909624  0.60287155  0.84226926    -0.17800
C662        C  0.47584401  0.58769372  0.81953351     0.02700
C663        C  0.01182665  0.60462402  0.81568656     0.02700
C664        C  0.02811376  0.63440606  0.83672817    -0.17800
H665        H  0.05476224  0.64719039  0.83474735     0.04800
H666        H  0.43250215  0.59046711  0.84553944     0.04800
O667        O  0.11824209  0.85870778  0.46935754    -0.80400
O668        O  0.23230519  0.86036405  0.54616796    -0.65100
O669        O  0.16894352  0.84213287  0.46459373    -1.11700
C670        C  0.10847029  0.74914416  0.54219021     1.06500
O671        O  0.22925697  0.81021231  0.53672772    -0.78300
O672        O  0.18271797  0.76770665  0.48486272    -0.65900
Ni673      Ni  0.16107164  0.87708388  0.44529989     1.34900
C674        C  0.15986808  0.76063800  0.45919211     0.85200
O675        O  0.23248948  0.89122860  0.47629991    -0.78900
O676        O  0.20454572  0.89657245  0.42295031    -0.89100
C677        C  0.24353921  0.83934775  0.55133930     0.84800
O678        O  0.17510138  0.90741304  0.48995032    -0.67300
O679        O  0.13709127  0.75005225  0.54645478    -0.86600
C680        C  0.17703080  0.90190741  0.52721451     0.85600
C681        C  0.23133083  0.90351128  0.44173121     1.07200
H682        H  0.16321934  0.82105842  0.55730379     0.39000
O683        O  0.16937763  0.81497739  0.53102911    -1.09300
O684        O  0.14027119  0.77440804  0.45956085    -0.65900
Ni685      Ni  0.13475277  0.80748357  0.49412130     1.26300
O686        O  0.18416593  0.87886431  0.53798384    -0.66200
O687        O  0.10322977  0.77205973  0.52594192    -0.78500
C688        C  0.09676916  0.83209301  0.45511985     0.85000
O689        O  0.10054782  0.80570095  0.45782833    -0.65600
Ni690      Ni  0.18250953  0.78123113  0.54041034     1.27400
Ni691      Ni  0.20109682  0.85302849  0.50491762     1.26100
H692        H  0.17582205  0.83276996  0.44143247     0.39500
O693        O  0.19048835  0.77464097  0.04479478    -0.80400
O694        O  0.19345055  0.90016050  0.95704460    -0.65100
O695        O  0.18342805  0.83290631  0.03307393    -1.11700
C696        C  0.09689987  0.76821006  0.94210364     1.06500
O697        O  0.13975929  0.88216370  0.96452997    -0.78300
O698        O  0.09165994  0.82598891  0.98768270    -0.65900
Ni699      Ni  0.21816644  0.82159886  0.04507903     1.34900
C700        C  0.09630293  0.82355524  0.02513824     0.85200
O701        O  0.22551362  0.89950023  0.02712604    -0.78900
O702        O  0.24865442  0.86716657  0.04889798    -0.89100
C703        C  0.16711660  0.90364040  0.95187843     0.84800
O704        O  0.23196116  0.81985629  0.98975549    -0.67300
O705        O  0.10330686  0.79456359  0.92275386    -0.86600
C706        C  0.23905973  0.84207809  0.96312054     0.85600
C707        C  0.24882779  0.89525415  0.04391323     1.07200
H708        H  0.16767138  0.82531291  0.94255214     0.39000
O709        O  0.15746029  0.83197892  0.96502778    -1.09300
O710        O  0.11884655  0.81593800  0.03687499    -0.65900
Ni711      Ni  0.14653395  0.80011522  0.00585699     1.26300
O712        O  0.22518385  0.86151647  0.96237170    -0.66200
O713        O  0.10947923  0.76771612  0.97662889    -0.78500
C714        C  0.16030079  0.75882334  0.05555363     0.85000
O715        O  0.13887076  0.76902962  0.04745839    -0.65600
Ni716      Ni  0.12233767  0.83857909  0.94315351     1.27400
Ni717      Ni  0.19107857  0.86689149  0.99496819     1.26100
H718        H  0.17628355  0.83900388  0.05869392     0.39500
O719        O  0.46771254  0.52165380  0.21719779    -0.74000
O720        O  0.02454326  0.55895179  0.30474451    -0.74000
O721        O  0.46411327  0.52955959  0.29983817    -0.74100
O722        O  0.03380282  0.55540149  0.22297509    -0.74100
O723        O  0.03150637  0.60130720  0.20851289    -0.74000
O724        O  0.45659410  0.57331600  0.28685210    -0.74000
O725        O  0.02965654  0.60798003  0.28954476    -0.74000
O726        O  0.46207500  0.56677014  0.20590481    -0.74100
Ni727      Ni  0.49762920  0.54000926  0.26091036     1.25400
Ni728      Ni  0.49470751  0.58967391  0.24801929     1.25400
C729        C  0.45301659  0.53581667  0.19886170     0.88200
C730        C  0.04126980  0.58914015  0.30548268     0.88100
C731        C  0.44572571  0.54392550  0.30123872     0.88200
C732        C  0.04623599  0.58240268  0.20428104     0.88300
O733        O  0.43373668  0.98018054  0.27095492    -0.74000
O734        O  0.47936828  0.93295973  0.23213121    -0.74000
O735        O  0.44942657  0.96603177  0.19752048    -0.74100
O736        O  0.46613647  0.94967600  0.30553276    -0.74100
O737        O  0.43098078  0.89810712  0.29579154    -0.74000
O738        O  0.39752123  0.93154110  0.20775103    -0.74000
O739        O  0.43316912  0.89326981  0.21296356    -0.74000
O740        O  0.39319343  0.93461090  0.29036451    -0.74100
Ni741      Ni  0.45897255  0.95898683  0.25152698     1.25400
Ni742      Ni  0.41090201  0.91158481  0.25181448     1.25400
C743        C  0.40746209  0.96636509  0.29106278     0.88200
C744        C  0.46498585  0.90713761  0.21157115     0.88100
C745        C  0.41930784  0.95744932  0.19036492     0.88200
C746        C  0.45735367  0.91962319  0.31264232     0.88300
C747        C  0.36581987  0.52367550  0.36024146     0.02700
C748        C  0.35034374  0.98893855  0.35785424     0.02700
C749        C  0.36443985  0.97193254  0.33444314    -0.17800
C750        C  0.39471735  0.98810727  0.31440513     0.02700
C751        C  0.41147157  0.52402174  0.31765291     0.02700
C752        C  0.39585233  0.54077573  0.33928591    -0.17800
H753        H  0.40839168  0.56729808  0.34240761     0.04800
H754        H  0.35170356  0.94533125  0.33277158     0.04800
O755        O  0.02148869  0.96763018  0.28427387    -0.74000
O756        O  0.05754992  0.52377526  0.19545837    -0.74000
O757        O  0.02797305  0.96366228  0.20127264    -0.74100
O758        O  0.05501728  0.53360758  0.27738265    -0.74100
O759        O  0.10145334  0.53154160  0.29010987    -0.74000
O760        O  0.07195930  0.95597658  0.21288250    -0.74000
O761        O  0.10690084  0.52865574  0.20898782    -0.74000
O762        O  0.06684198  0.96195400  0.29418177    -0.74100
Ni763      Ni  0.03913693  0.99725337  0.23994871     1.25400
Ni764      Ni  0.08908936  0.99427256  0.25125203     1.25400
C765        C  0.03590572  0.95290916  0.30209938     0.88200
C766        C  0.08786640  0.54018083  0.19337118     0.88100
C767        C  0.04233984  0.94529653  0.19908120     0.88200
C768        C  0.08264569  0.54641533  0.29471783     0.88300
C769        C  0.38097970  0.51614213  0.12702133     0.02700
C770        C  0.36715873  0.98176097  0.12294353     0.02700
C771        C  0.38166642  0.96416421  0.14242261    -0.17800
C772        C  0.40966099  0.97981849  0.16659298     0.02700
C773        C  0.42449183  0.51556315  0.17091412     0.02700
C774        C  0.40938298  0.53264015  0.15045131    -0.17800
H775        H  0.41950533  0.55917918  0.15302294     0.04800
H776        H  0.37029618  0.93757066  0.13955729     0.04800
C777        C  0.11958709  0.64160315  0.36078421     0.02700
C778        C  0.13696808  0.62172934  0.35896478     0.02700
C779        C  0.12389427  0.59161917  0.33730607    -0.17800
C780        C  0.09305671  0.57928490  0.31857558     0.02700
C781        C  0.07503638  0.59980658  0.32157297     0.02700
C782        C  0.08923725  0.63056676  0.34136736    -0.17800
H783        H  0.07562864  0.64544342  0.34360558     0.04800
H784        H  0.13822984  0.57747794  0.33526311     0.04800
C785        C  0.12103573  0.63527281  0.13796125     0.02700
C786        C  0.14036721  0.61732086  0.13543298     0.02700
C787        C  0.12900468  0.58702217  0.15507681    -0.17800
C788        C  0.09859956  0.57355740  0.17604036     0.02700
C789        C  0.07853096  0.59199941  0.17925940     0.02700
C790        C  0.09086650  0.62249216  0.15973653    -0.17800
H791        H  0.07690573  0.63701298  0.16171836     0.04800
H792        H  0.14347278  0.57300727  0.15252152     0.04800
C793        C  0.48197922  0.86676378  0.37826249     0.02700
C794        C  0.01651530  0.88044115  0.37386569     0.02700
C795        C  0.03299588  0.90888721  0.35024916    -0.17800
C796        C  0.01585535  0.92432435  0.33035767     0.02700
C797        C  0.48005645  0.90971143  0.33541762     0.02700
C798        C  0.46447001  0.88166852  0.35936797    -0.17800
H799        H  0.43782288  0.87056776  0.36260390     0.04800
H800        H  0.05956573  0.91884514  0.34712734     0.04800
C801        C  0.02073055  0.86661719  0.13745250     0.02700
C802        C  0.48599746  0.85137355  0.14057650     0.02700
C803        C  0.46943255  0.86508986  0.16546399    -0.17800
C804        C  0.48617156  0.89469755  0.18650415     0.02700
C805        C  0.02212218  0.91134763  0.18228141     0.02700
C806        C  0.03841255  0.89610274  0.15899257    -0.17800
H807        H  0.06499478  0.90833563  0.15541725     0.04800
H808        H  0.44278485  0.85246315  0.16787664     0.04800
C809        C  0.17149932  0.72326133  0.10418786    -0.20800
C810        C  0.15002005  0.72732793  0.07678957    -0.08900
C811        C  0.11883990  0.70128021  0.07038799     0.30000
C812        C  0.10967853  0.67160624  0.09057397    -0.20800
C813        C  0.13123206  0.66741938  0.11773926    -0.08900
C814        C  0.16207112  0.69376634  0.12498258     0.30000
F815        F  0.18286782  0.69114230  0.15249398    -0.19400
H816        H  0.19541925  0.74320938  0.11006799     0.18300
H817        H  0.08585029  0.65157362  0.08449195     0.18300
F818        F  0.09759006  0.70411301  0.04375612    -0.19400
C819        C  0.06326440  0.84531273  0.12418260    -0.20800
C820        C  0.03888418  0.85368664  0.10931799    -0.08900
C821        C  0.03271029  0.85077715  0.06728192     0.30000
C822        C  0.05036884  0.83939345  0.04075614    -0.20800
C823        C  0.07522825  0.83135441  0.05521635    -0.08900
C824        C  0.08134168  0.83422320  0.09748603     0.30000
F825        F  0.10535914  0.82734991  0.11296835    -0.19400
H826        H  0.06848811  0.84768719  0.15651831     0.18300
H827        H  0.04519184  0.83796294  0.00846330     0.18300
F828        F  0.01060275  0.86033434  0.05153294    -0.19400
C829        C  0.30655046  0.96258406  0.11217322    -0.20800
C830        C  0.33692188  0.96336292  0.09908035    -0.08900
C831        C  0.33816467  0.94532718  0.06412270     0.30000
C832        C  0.30925242  0.92550828  0.04386109    -0.20800
C833        C  0.27863663  0.92329865  0.05810756    -0.08900
C834        C  0.27746859  0.94255314  0.09188175     0.30000
F835        F  0.24809169  0.93976792  0.10730093    -0.19400
H836        H  0.30522714  0.97628047  0.13924330     0.18300
H837        H  0.31049445  0.91037776  0.01824051     0.18300
F838        F  0.36724307  0.94607767  0.05045690    -0.19400
C839        C  0.14861077  0.70228517  0.44988225    -0.20800
C840        C  0.15291109  0.73187868  0.43188862    -0.08900
C841        C  0.14636083  0.73184242  0.39016282     0.30000
C842        C  0.13595300  0.70255602  0.36694608    -0.20800
C843        C  0.13124193  0.67283560  0.38525177    -0.08900
C844        C  0.13714404  0.67297690  0.42722088     0.30000
F845        F  0.13075857  0.64455318  0.44666267    -0.19400
H846        H  0.15255467  0.70154918  0.48228019     0.18300
H847        H  0.13137061  0.70297493  0.33470113     0.18300
F848        F  0.15021662  0.76002564  0.37194362    -0.19400
C849        C  0.05285607  0.85094867  0.37194041    -0.22600
C850        C  0.03550084  0.86539838  0.39473717    -0.08900
C851        C  0.03454614  0.86356905  0.43756017     0.30000
C852        C  0.05123913  0.84818923  0.45712637    -0.20800
C853        C  0.06936313  0.83451397  0.43453385    -0.08900
C854        C  0.06963314  0.83550551  0.39167291     0.30000
F855        F  0.08843925  0.82414200  0.36916903    -0.19400
H856        H  0.05361971  0.85193243  0.33889658     0.18300
H857        H  0.05206754  0.84909089  0.49020317     0.18300
F858        F  0.01867034  0.87797483  0.46051194    -0.19400
C859        C  0.26128033  0.94856883  0.39263225    -0.20800
C860        C  0.26224234  0.92694320  0.42238677    -0.08900
C861        C  0.29268437  0.92723404  0.43202983     0.30000
C862        C  0.32121936  0.94784950  0.41111846    -0.20800
C863        C  0.32002788  0.96892417  0.38101112    -0.08900
C864        C  0.28999402  0.96954322  0.37217816     0.30000
F865        F  0.28833796  0.98962074  0.34295742    -0.19400
H866        H  0.23820316  0.94903881  0.38489395     0.18300
H867        H  0.34439797  0.94730448  0.41819442     0.18300
F868        F  0.29480143  0.90681295  0.46046246    -0.19400
C869        C  0.05385784  0.67821261  0.91229016    -0.20800
C870        C  0.03088169  0.67844943  0.88423150    -0.08900
C871        C  0.02893809  0.70799147  0.87631006     0.30000
C872        C  0.05007511  0.73697954  0.89593598    -0.20800
C873        C  0.07355825  0.73695651  0.92354544    -0.08900
C874        C  0.07506244  0.70716701  0.93186286     0.30000
F875        F  0.09806179  0.70623279  0.95720039    -0.19400
H876        H  0.05580285  0.65557872  0.91831907     0.18300
H877        H  0.04839039  0.75959488  0.88905746     0.18300
F878        F  0.00767351  0.70905921  0.84831679    -0.19400
C879        C  0.13847691  0.96760590  0.93450675    -0.20800
C880        C  0.13557792  0.96577899  0.89186915    -0.08900
C881        C  0.14939904  0.94796608  0.86887204     0.30000
C882        C  0.16447890  0.93090895  0.88867147    -0.20800
C883        C  0.16599462  0.93161133  0.93147997    -0.08900
C884        C  0.15366991  0.95084200  0.95414720     0.30000
F885        F  0.15365454  0.95090119  0.99561708    -0.19400
H886        H  0.12806102  0.98133031  0.95269714     0.18300
H887        H  0.17261456  0.91511581  0.87085289     0.18300
F888        F  0.14749973  0.94639532  0.82751724    -0.19400
C889        C  0.33134014  0.85911186  0.57687159    -0.20800
C890        C  0.33171280  0.86670887  0.61879439    -0.08900
C891        C  0.30301277  0.86591578  0.63793771     0.30000
C892        C  0.27451403  0.85755576  0.61540432    -0.20800
C893        C  0.27401631  0.84905380  0.57392874    -0.08900
C894        C  0.30247379  0.84963018  0.55472782     0.30000
F895        F  0.30248736  0.84168017  0.51449333    -0.19400
H896        H  0.35338708  0.86027687  0.56139293     0.18300
H897        H  0.25255277  0.85699352  0.63050632     0.18300
F898        F  0.30237057  0.87259968  0.67851527    -0.19400
C899        C  0.29718096  0.86653135  0.87068653    -0.20800
C900        C  0.32669686  0.86966521  0.88825659    -0.08900
C901        C  0.32637181  0.86242549  0.92986410     0.30000
C902        C  0.29707661  0.85130980  0.95282324    -0.20800
C903        C  0.26767406  0.84844571  0.93549357    -0.08900
C904        C  0.26794900  0.85632736  0.89415992     0.30000
F905        F  0.24004591  0.85411182  0.87655744    -0.19400
H906        H  0.29686721  0.87214793  0.83876918     0.18300
H907        H  0.29776344  0.84660440  0.98500458     0.18300
F908        F  0.35465144  0.86732369  0.94880925    -0.19400
C909        C  0.15370314  0.93347234  0.62662949    -0.20800
C910        C  0.14661358  0.95879008  0.61201501    -0.08900
C911        C  0.15088604  0.96578570  0.57016432     0.30000
C912        C  0.16266324  0.94844941  0.54377818    -0.20800
C913        C  0.16928254  0.92264183  0.55784895    -0.08900
C914        C  0.16483800  0.91539744  0.59984930     0.30000
F915        F  0.17006867  0.89025481  0.61485042    -0.19400
H916        H  0.15017970  0.92744729  0.65874513     0.18300
H917        H  0.16528698  0.95454076  0.51169372     0.18300
F918        F  0.14206489  0.98830133  0.55422464    -0.19400
C919        C  0.08062545  0.68867788  0.54547705    -0.20800
C920        C  0.08078888  0.71904349  0.55653423    -0.08900
C921        C  0.05802800  0.72009925  0.58595285     0.30000
C922        C  0.03708744  0.69133507  0.60613845    -0.20800
C923        C  0.03807363  0.66116045  0.59638448    -0.08900
C924        C  0.05928916  0.65993888  0.56486356     0.30000
F925        F  0.06009448  0.63106942  0.55375424    -0.19400
H926        H  0.09797606  0.68743624  0.52270389     0.18300
H927        H  0.02112730  0.69286165  0.63059654     0.18300
F928        F  0.05785011  0.74916843  0.59736675    -0.19400
C929        C  0.43385051  0.66566466  0.60566566    -0.20800
C930        C  0.43218931  0.66369389  0.56289766    -0.08900
C931        C  0.44918694  0.64838173  0.54100716     0.30000
C932        C  0.46603884  0.63373402  0.56168759    -0.20800
C933        C  0.46603792  0.63394606  0.60450841    -0.08900
C934        C  0.45063788  0.65080532  0.62644397     0.30000
F935        F  0.95143161  0.65238110  0.66786221    -0.19400
H936        H  0.42000090  0.67640354  0.62305072     0.18300
H937        H  0.47836925  0.62137225  0.54435076     0.18300
F938        F  0.44723907  0.64537844  0.49968117    -0.19400
C939        C  0.33702343  0.58656291  0.40290579    -0.20800
C940        C  0.32985752  0.57672050  0.44383431    -0.08900
C941        C  0.33411911  0.54909012  0.45639554     0.30000
C942        C  0.34637833  0.53275368  0.42923705    -0.20800
C943        C  0.35313017  0.54215330  0.38833031    -0.08900
C944        C  0.34852755  0.56941464  0.37529230     0.30000
F945        F  0.35542019  0.57962169  0.33607783    -0.19400
H946        H  0.33453669  0.60801035  0.39251282     0.18300
H947        H  0.35103602  0.51280805  0.44055789     0.18300
F948        F  0.32719231  0.53804417  0.49528556    -0.19400
C949        C  0.23839049  0.55192093  0.60892392    -0.20800
C950        C  0.23774722  0.57398306  0.57960327    -0.08900
C951        C  0.20746646  0.57411739  0.57004782     0.30000
C952        C  0.17881033  0.55358652  0.59079041    -0.20800
C953        C  0.17962873  0.53189242  0.62027673    -0.08900
C954        C  0.20950567  0.53086558  0.62900359     0.30000
F955        F  0.21087387  0.51035498  0.65782777    -0.19400
H956        H  0.26133809  0.55110817  0.61652386     0.18300
H957        H  0.15578557  0.55453394  0.58388056     0.18300
F958        F  0.20559996  0.59475757  0.54174299    -0.19400
C959        C  0.44277978  0.77807806  0.41443711    -0.20800
C960        C  0.42051863  0.77969327  0.44419311    -0.08900
C961        C  0.42099710  0.81039248  0.45458173     0.30000
C962        C  0.44221027  0.83860455  0.43426854    -0.20800
C963        C  0.46300967  0.83686421  0.40269182    -0.08900
C964        C  0.46361466  0.80640690  0.39330176     0.30000
F965        F  0.48250423  0.80355986  0.36188451    -0.19400
H966        H  0.44227662  0.75458462  0.40543483     0.18300
H967        H  0.44151075  0.86179234  0.44212507     0.18300
F968        F  0.39963829  0.81287638  0.48300005    -0.19400
C969        C  0.19439093  0.66289139  0.37537861    -0.20800
C970        C  0.16863001  0.63137773  0.38028165    -0.08900
C971        C  0.17267128  0.60944241  0.40704812     0.30000
C972        C  0.20165791  0.61918639  0.42897026    -0.20800
C973        C  0.22677203  0.65114980  0.42538318    -0.08900
C974        C  0.22298583  0.67296641  0.39826088     0.30000
F975        F  0.24721856  0.70373738  0.39315146    -0.19400
H976        H  0.19211330  0.67990501  0.35425977     0.18300
H977        H  0.20414767  0.60196744  0.44958789     0.18300
F978        F  0.14810617  0.57898745  0.41316204    -0.19400
C979        C  0.38308418  0.78906539  0.57231048    -0.20800
C980        C  0.35037012  0.76506055  0.57223314    -0.08900
C981        C  0.32675507  0.77051568  0.59627868     0.30000
C982        C  0.33618282  0.79941973  0.62034636    -0.20800
C983        C  0.36888472  0.82415968  0.61892933    -0.08900
C984        C  0.39208138  0.81847328  0.59417478     0.30000
F985        F  0.42338162  0.84201523  0.58951808    -0.19400
H986        H  0.40165440  0.78581930  0.55344728     0.18300
H987        H  0.31781108  0.80273490  0.63946416     0.18300
F988        F  0.29483865  0.74790394  0.59678625    -0.19400
C989        C  0.19330021  0.53824564  0.88639139    -0.20800
C990        C  0.16297398  0.53710956  0.90027575    -0.08900
C991        C  0.16170821  0.55430045  0.93599263     0.30000
C992        C  0.19061355  0.57372683  0.95631493    -0.20800
C993        C  0.22117942  0.57638688  0.94128228    -0.08900
C994        C  0.22237899  0.55784293  0.90680818     0.30000
F995        F  0.25173403  0.56090376  0.89097226    -0.19400
H996        H  0.19452667  0.52500993  0.85883307     0.18300
H997        H  0.18941039  0.58828990  0.98259226     0.18300
F998        F  0.13260945  0.55300978  0.95045521    -0.19400
C999        C  0.20071232  0.63038878  0.12844385    -0.20800
C1000       C  0.17167745  0.62860417  0.11085012    -0.08900
C1001       C  0.17256199  0.63659012  0.06943399     0.30000
C1002       C  0.20203291  0.64752354  0.04689086    -0.20800
C1003       C  0.23096385  0.64923668  0.06433798    -0.08900
C1004       C  0.23003760  0.64018945  0.10527007     0.30000
F1005       F  0.25740093  0.64094276  0.12278298    -0.19400
H1006       H  0.20056771  0.62397387  0.16013688     0.18300
H1007       H  0.20183815  0.65303757  0.01489302     0.18300
F1008       F  0.14464326  0.63246739  0.05017303    -0.19400
C1009       C  0.44499155  0.65792213  0.96009527    -0.20800
C1010       C  0.42344207  0.67026446  0.94515939    -0.08900
C1011       C  0.41991632  0.67071391  0.90252561     0.30000
C1012       C  0.43698530  0.65827881  0.87591872    -0.20800
C1013       C  0.45797176  0.64557217  0.89131961    -0.08900
C1014       C  0.46182948  0.64554310  0.93364923     0.30000
F1015       F  0.48124806  0.63264801  0.94953459    -0.19400
H1016       H  0.44814107  0.65677818  0.99260889     0.18300
H1017       H  0.43395479  0.65864849  0.84325496     0.18300
F1018       F  0.39980875  0.68272713  0.88653178    -0.19400
C1019       C  0.34993090  0.55086050  0.12749704    -0.20800
C1020       C  0.36632469  0.53502674  0.10552696    -0.08900
C1021       C  0.36740586  0.53589706  0.06269257     0.30000
C1022       C  0.35302536  0.55308675  0.04223316    -0.20800
C1023       C  0.33733115  0.56967999  0.06405439    -0.08900
C1024       C  0.33556884  0.56821968  0.10689819     0.30000
F1025       F  0.32258966  0.58592235  0.12879763    -0.19400
H1026       H  0.34884895  0.55026139  0.16056372     0.18300
H1027       H  0.35602514  0.55530097  0.00933765     0.18300
F1028       F  0.38368900  0.02134059  0.04080720    -0.19400
C1029       C  0.44479344  0.76217820  0.10845223    -0.20800
C1030       C  0.42220876  0.76252804  0.07967058    -0.08900
C1031       C  0.42178211  0.79258559  0.07002409     0.30000
C1032       C  0.44317869  0.82149680  0.08943355    -0.20800
C1033       C  0.46563581  0.82098603  0.11807464    -0.08900
C1034       C  0.46646479  0.79121050  0.12742355     0.30000
F1035       F  0.98743906  0.79012461  0.15582788    -0.19400
H1036       H  0.44570258  0.73937484  0.11630710     0.18300
H1037       H  0.44211282  0.84439525  0.08241939     0.18300
F1038       F  0.40002304  0.79395885  0.04299372    -0.19400
C1039       C  0.38865261  0.82692887  0.90747365    -0.20800
C1040       C  0.36697128  0.83116412  0.88063828    -0.08900
C1041       C  0.33566735  0.80523655  0.87441459     0.30000
C1042       C  0.32573921  0.77629861  0.89644165    -0.20800
C1043       C  0.34732521  0.77228347  0.92366858    -0.08900
C1044       C  0.37910405  0.79770031  0.92858654     0.30000
F1045       F  0.40067975  0.79467027  0.95453738    -0.19400
H1046       H  0.41286282  0.84661965  0.91268600     0.18300
H1047       H  0.30143700  0.75669083  0.89149862     0.18300
F1048       F  0.31486004  0.80777748  0.84684923    -0.19400
O1049       O  0.86105322  0.11944047  0.03108012    -0.80400
O1050       O  0.85868402  0.23149821  0.95419890    -0.65100
O1051       O  0.84074765  0.16763312  0.03457725    -1.11700
C1052       C  0.75073702  0.10445786  0.95542099     1.06500
O1053       O  0.80674189  0.22501999  0.95557477    -0.78300
O1054       O  0.76777753  0.17963002  0.01209320    -0.65900
Ni1055     Ni  0.87644300  0.16184139  0.05577966     1.34900
C1056       C  0.75988930  0.15621832  0.03715000     0.85200
O1057       O  0.88762036  0.23232009  0.02527585    -0.78900
O1058       O  0.89303597  0.20485702  0.07901432    -0.89100
C1059       C  0.83702216  0.24115062  0.94542073     0.84800
O1060       O  0.90808906  0.17795765  0.01248481    -0.67300
O1061       O  0.74975061  0.13224204  0.95278461    -0.86600
C1062       C  0.90276731  0.17891312  0.97495363     0.85600
C1063       C  0.89941066  0.23147644  0.06027268     1.07200
H1064       H  0.82247544  0.16226749  0.94050338     0.39000
O1065       O  0.81508038  0.16744480  0.96652108    -1.09300
O1066       O  0.77326277  0.13628018  0.03627902    -0.65900
Ni1067     Ni  0.80835804  0.13289773  0.00332455     1.26300
O1068       O  0.87946500  0.18529729  0.96319124    -0.66200
O1069       O  0.77495444  0.10056520  0.97005217    -0.78500
C1070       C  0.83440768  0.09682873  0.04369181     0.85000
O1071       O  0.80732625  0.09916641  0.03965505    -0.65600
Ni1072     Ni  0.77966558  0.17797651  0.95601953     1.27400
Ni1073     Ni  0.85124051  0.20007218  0.99484635     1.26100
H1074       H  0.82999382  0.17339058  0.05726765     0.39500
O1075       O  0.77199595  0.19061145  0.46219535    -0.80400
O1076       O  0.90097719  0.19211559  0.53932647    -0.65100
O1077       O  0.83096055  0.18420721  0.46905797    -1.11700
C1078       C  0.76877591  0.09718006  0.56028572     1.06500
O1079       O  0.88168935  0.13847188  0.53161750    -0.78300
O1080       O  0.82358148  0.09149205  0.51176037    -0.65900
Ni1081     Ni  0.81892515  0.21912774  0.46273790     1.34900
C1082       C  0.82198001  0.09714927  0.47448916     0.85200
O1083       O  0.89755989  0.22515203  0.47111118    -0.78900
O1084       O  0.86461637  0.25017091  0.45913004    -0.89100
C1085       C  0.90410722  0.16552492  0.54340065     0.84800
O1086       O  0.81743374  0.22858967  0.52020107    -0.67300
O1087       O  0.79554901  0.10404170  0.57902311    -0.86600
C1088       C  0.84213885  0.23685693  0.54333412     0.85600
C1089       C  0.89286395  0.24963853  0.45897919     1.07200
H1090       H  0.82621301  0.16761422  0.55880957     0.39000
O1091       O  0.83218425  0.15741022  0.53570132    -1.09300
O1092       O  0.81523469  0.12037467  0.46348647    -0.65900
Ni1093     Ni  0.79925882  0.14687611  0.49641157     1.26300
O1094       O  0.86296197  0.22470918  0.53886625    -0.66200
O1095       O  0.76772561  0.10924452  0.52560141    -0.78500
C1096       C  0.75720756  0.16106196  0.44877884     0.85000
O1097       O  0.76749247  0.13960140  0.45608280    -0.65600
Ni1098     Ni  0.83889685  0.12201007  0.55600895     1.27400
Ni1099     Ni  0.86627675  0.19071203  0.50436166     1.26100
H1100       H  0.83596972  0.17797742  0.44218440     0.39500
O1101       O  0.93258047  0.03771973  0.70670845    -0.74000
O1102       O  0.89161891  0.47033407  0.79111312    -0.74000
O1103       O  0.92648661  0.04302669  0.78813676    -0.74100
O1104       O  0.89743175  0.46791904  0.70998924    -0.74100
O1105       O  0.94354148  0.46554119  0.72366566    -0.74000
O1106       O  0.97053072  0.03552103  0.80002603    -0.74000
O1107       O  0.94087361  0.47539295  0.80554566    -0.74000
O1108       O  0.97767009  0.03164756  0.71704099    -0.74100
Ni1109     Ni  0.90974399  0.00504037  0.74924587     1.25400
Ni1110     Ni  0.95953746  0.00194326  0.76121125     1.25400
C1111       C  0.96355420  0.04659594  0.69905504     0.88200
C1112       C  0.91058820  0.45883388  0.80698756     0.88100
C1113       C  0.95598290  0.05374591  0.80233014     0.88200
C1114       C  0.91608229  0.45285205  0.70584921     0.88300
O1115       O  0.60608586  0.06557239  0.71229166    -0.74000
O1116       O  0.56525075  0.10640923  0.78966807    -0.74000
O1117       O  0.60120565  0.06848590  0.79496729    -0.74100
O1118       O  0.56803289  0.10155850  0.70677061    -0.74100
O1119       O  0.53332815  0.04980290  0.69682327    -0.74000
O1120       O  0.54933544  0.03369329  0.80489853    -0.74000
O1121       O  0.51937030  0.06653643  0.77003221    -0.74000
O1122       O  0.56586208  0.01972658  0.73154129    -0.74100
Ni1123     Ni  0.58795943  0.08832999  0.75089761     1.25400
Ni1124     Ni  0.54016373  0.04065420  0.75084726     1.25400
C1125       C  0.59201066  0.03380169  0.71120446     0.88200
C1126       C  0.53341958  0.09235793  0.79080615     0.88100
C1127       C  0.57943601  0.04244300  0.81208069     0.88200
C1128       C  0.54205725  0.07978281  0.68952632     0.88300
O1129       O  0.53763991  0.43338154  0.79450958    -0.74000
O1130       O  0.96983262  0.39195359  0.71160103    -0.74000
O1131       O  0.54276038  0.42703353  0.71347025    -0.74100
O1132       O  0.96806980  0.39861477  0.79233394    -0.74100
O1133       O  0.96533518  0.44433463  0.77794083    -0.74000
O1134       O  0.53518963  0.47091371  0.70114164    -0.74000
O1135       O  0.97454542  0.44081324  0.69625440    -0.74000
O1136       O  0.53140071  0.47829023  0.78398201    -0.74100
Ni1137     Ni  0.50486585  0.41045913  0.75267436     1.25400
Ni1138     Ni  0.50153919  0.45999042  0.74008956     1.25400
C1139       C  0.54643446  0.46422947  0.80189184     0.88200
C1140       C  0.95785332  0.41057838  0.69600637     0.88100
C1141       C  0.55356070  0.45649353  0.69928573     0.88200
C1142       C  0.95296973  0.41722426  0.79637177     0.88300
C1143       C  0.98436097  0.11856430  0.62579158     0.02700
C1144       C  0.51877392  0.13137612  0.62085205     0.02700
C1145       C  0.53583767  0.11657467  0.64071641    -0.17800
C1146       C  0.51978062  0.08927331  0.66570327     0.02700
C1147       C  0.98399593  0.07503820  0.67064255     0.02700
C1148       C  0.96735115  0.09059954  0.65007712    -0.17800
H1149       H  0.94082068  0.08117173  0.65319949     0.04800
H1150       H  0.56249092  0.12728871  0.63763833     0.04800
C1151       C  0.63356913  0.47714099  0.63993069     0.02700
C1152       C  0.64915738  0.01181229  0.64308851     0.02700
C1153       C  0.63507898  0.02864092  0.66703108    -0.17800
C1154       C  0.60473188  0.01232329  0.68698646     0.02700
C1155       C  0.58782313  0.47646095  0.68282869     0.02700
C1156       C  0.60340612  0.45987717  0.66059337    -0.17800
H1157       H  0.59091796  0.43337895  0.65706840     0.04800
H1158       H  0.64793347  0.05520693  0.66933045     0.04800
C1159       C  0.87723796  0.36324451  0.86052259     0.02700
C1160       C  0.85786745  0.38110398  0.86334491     0.02700
C1161       C  0.86922936  0.41151850  0.84412015    -0.17800
C1162       C  0.89988804  0.42532481  0.82374530     0.02700
C1163       C  0.92023009  0.40712336  0.82063713     0.02700
C1164       C  0.90765461  0.37631485  0.83930955    -0.17800
H1165       H  0.92167393  0.36185235  0.83724273     0.04800
H1166       H  0.85462806  0.42539559  0.84672850     0.04800
C1167       C  0.86227539  0.37614253  0.64221409     0.02700
C1168       C  0.87951995  0.35611797  0.64241025     0.02700
C1169       C  0.90940944  0.36782415  0.66312993    -0.17800
C1170       C  0.92380300  0.39934898  0.68069185     0.02700
C1171       C  0.90572296  0.41974161  0.68237659     0.02700
C1172       C  0.87508103  0.40687288  0.66291224    -0.17800
H1173       H  0.86122557  0.42148621  0.66264680     0.04800
H1174       H  0.92262109  0.35260331  0.66396436     0.04800
C1175       C  0.61968363  0.48423654  0.87184745     0.02700
C1176       C  0.63258876  0.01847741  0.87706911     0.02700
C1177       C  0.61717139  0.03578968  0.85919481    -0.17800
C1178       C  0.58922821  0.02003873  0.83516303     0.02700
C1179       C  0.57505584  0.48442765  0.82974234     0.02700
C1180       C  0.59104758  0.46755928  0.84883363    -0.17800
H1181       H  0.58149977  0.44111181  0.84542110     0.04800
H1182       H  0.62797712  0.06232930  0.86288742     0.04800
C1183       C  0.51108224  0.14811140  0.86101747     0.02700
C1184       C  0.97633498  0.13266317  0.86344667     0.02700
C1185       C  0.95909624  0.10287099  0.84226960    -0.17800
C1186       C  0.97584398  0.08769314  0.81953391     0.02700
C1187       C  0.51182645  0.10462430  0.81568664     0.02700
C1188       C  0.52811353  0.13440621  0.83672861    -0.17800
H1189       H  0.55476203  0.14719045  0.83474804     0.04800
H1190       H  0.93250215  0.09046653  0.84553987     0.04800
O1191       O  0.61824251  0.35870813  0.46935739    -0.80400
O1192       O  0.73230542  0.36036448  0.54616790    -0.65100
O1193       O  0.66894403  0.34213338  0.46459338    -1.11700
C1194       C  0.60847084  0.24914430  0.54218933     1.06500
O1195       O  0.72925752  0.31021289  0.53672725    -0.78300
O1196       O  0.68271871  0.26770731  0.48486179    -0.65900
Ni1197     Ni  0.66107207  0.37708445  0.44529987     1.34900
C1198       C  0.65986871  0.26063854  0.45919131     0.85200
O1199       O  0.73248982  0.39122932  0.47630010    -0.78900
O1200       O  0.70454616  0.39657318  0.42295042    -0.89100
C1201       C  0.74353958  0.33934828  0.55133907     0.84800
O1202       O  0.67510165  0.40741339  0.48995056    -0.67300
O1203       O  0.63709186  0.25005242  0.54645376    -0.86600
C1204       C  0.67703070  0.40190742  0.52721472     0.85600
C1205       C  0.73133124  0.40351205  0.44173141     1.07200
H1206       H  0.66321965  0.32105848  0.55730333     0.39000
O1207       O  0.66937805  0.31497764  0.53102860    -1.09300
O1208       O  0.64027178  0.27440853  0.45956013    -0.65900
Ni1209     Ni  0.63475327  0.30748391  0.49412074     1.26300
O1210       O  0.68416592  0.37886435  0.53798387    -0.66200
O1211       O  0.60323027  0.27205990  0.52594118    -0.78500
C1212       C  0.59676968  0.33209342  0.45511942     0.85000
O1213       O  0.60054837  0.30570137  0.45782772    -0.65600
Ni1214     Ni  0.68251011  0.28123147  0.54040955     1.27400
Ni1215     Ni  0.70109718  0.35302896  0.50491745     1.26100
H1216       H  0.67582269  0.33277058  0.44143199     0.39500
O1217       O  0.69048893  0.27464159  0.04479557    -0.80400
O1218       O  0.69345081  0.40016104  0.95704489    -0.65100
O1219       O  0.68342836  0.33290680  0.03307429    -1.11700
C1220       C  0.59690055  0.26821011  0.94210367     1.06500
O1221       O  0.63975944  0.38216382  0.96452948    -0.78300
O1222       O  0.59166034  0.32598901  0.98768238    -0.65900
Ni1223     Ni  0.71816684  0.32159954  0.04507957     1.34900
C1224       C  0.59630327  0.32355533  0.02513794     0.85200
O1225       O  0.72551363  0.39950083  0.02712672    -0.78900
O1226       O  0.74865467  0.36716730  0.04889840    -0.89100
C1227       C  0.66711676  0.40364070  0.95187828     0.84800
O1228       O  0.73196146  0.31985687  0.98975601    -0.67300
O1229       O  0.60330761  0.29456359  0.92275376    -0.86600
C1230       C  0.73906019  0.34207875  0.96312114     0.85600
C1231       C  0.74882787  0.39525483  0.04391390     1.07200
H1232       H  0.66767216  0.32531341  0.94255236     0.39000
O1233       O  0.65746087  0.33197931  0.96502790    -1.09300
O1234       O  0.61884687  0.31593814  0.03687480    -0.65900
Ni1235     Ni  0.64653452  0.30011558  0.00585711     1.26300
O1236       O  0.72518444  0.36151725  0.96237234    -0.66200
O1237       O  0.60947998  0.26771628  0.97662890    -0.78500
C1238       C  0.66030129  0.25882378  0.05555399     0.85000
O1239       O  0.63887127  0.26903003  0.04745857    -0.65600
Ni1240     Ni  0.62233817  0.33857915  0.94315326     1.27400
Ni1241     Ni  0.69107886  0.36689201  0.99496855     1.26100
H1242       H  0.67628371  0.33900428  0.05869426     0.39500
O1243       O  0.96771261  0.02165392  0.21719838    -0.74000
O1244       O  0.52454303  0.05895178  0.30474406    -0.74000
O1245       O  0.96411344  0.02955986  0.29983870    -0.74100
O1246       O  0.53380266  0.05540147  0.22297461    -0.74100
O1247       O  0.53150622  0.10130720  0.20851247    -0.74000
O1248       O  0.95659447  0.07331639  0.28685261    -0.74000
O1249       O  0.52965620  0.10797999  0.28954439    -0.74000
O1250       O  0.96207518  0.06677033  0.20590539    -0.74100
Ni1251     Ni  0.99762931  0.04000936  0.26091088     1.25400
Ni1252     Ni  0.99470778  0.08967409  0.24801973     1.25400
C1253       C  0.95301668  0.03581684  0.19886234     0.88200
C1254       C  0.54126951  0.08914015  0.30548236     0.88100
C1255       C  0.94572599  0.04392589  0.30123924     0.88200
C1256       C  0.54623586  0.08240268  0.20428060     0.88300
O1257       O  0.93373690  0.48018063  0.27095556    -0.74000
O1258       O  0.97936807  0.43295946  0.23213162    -0.74000
O1259       O  0.94942652  0.46603175  0.19752108    -0.74100
O1260       O  0.96613643  0.44967582  0.30553324    -0.74100
O1261       O  0.93098060  0.39810701  0.29579201    -0.74000
O1262       O  0.89752114  0.43154121  0.20775173    -0.74000
O1263       O  0.93316878  0.39326973  0.21296396    -0.74000
O1264       O  0.89319349  0.43461110  0.29036513    -0.74100
Ni1265     Ni  0.95897255  0.45898673  0.25152752     1.25400
Ni1266     Ni  0.91090186  0.41158483  0.25181505     1.25400
C1267       C  0.90746227  0.46636528  0.29106336     0.88200
C1268       C  0.96498551  0.40713746  0.21157140     0.88100
C1269       C  0.91930779  0.45744940  0.19036563     0.88200
C1270       C  0.95735357  0.41962300  0.31264272     0.88300
C1271       C  0.86582034  0.02367635  0.36024205     0.02700
C1272       C  0.85034408  0.48893916  0.35785448     0.02700
C1273       C  0.86444006  0.47193301  0.33444345    -0.17800
C1274       C  0.89471761  0.48810761  0.31440556     0.02700
C1275       C  0.91147186  0.02402228  0.31765344     0.02700
C1276       C  0.89585275  0.04077644  0.33928639    -0.17800
H1277       H  0.90839218  0.06729879  0.34240800     0.04800
H1278       H  0.85170365  0.44533172  0.33277194     0.04800
O1279       O  0.52148900  0.46763039  0.28427356    -0.74000
O1280       O  0.55754995  0.02377529  0.19545821    -0.74000
O1281       O  0.52797358  0.46366244  0.20127235    -0.74100
O1282       O  0.55501723  0.03360772  0.27738239    -0.74100
O1283       O  0.60145331  0.03154188  0.29010986    -0.74000
O1284       O  0.57195993  0.45597697  0.21288243    -0.74000
O1285       O  0.60690093  0.02865596  0.20898779    -0.74000
O1286       O  0.56684238  0.46195441  0.29418165    -0.74100
Ni1287     Ni  0.53913719  0.49725352  0.23994839     1.25400
Ni1288     Ni  0.58908972  0.49427298  0.25125189     1.25400
C1289       C  0.53590609  0.45290947  0.30209917     0.88200
C1290       C  0.58786641  0.04018092  0.19337101     0.88100
C1291       C  0.54234049  0.44529680  0.19908107     0.88200
C1292       C  0.58264558  0.04641552  0.29471772     0.88300
C1293       C  0.88097965  0.01614248  0.12702242     0.02700
C1294       C  0.86715848  0.48176125  0.12294501     0.02700
C1295       C  0.88166619  0.46416441  0.14242385    -0.17800
C1296       C  0.90966094  0.47981864  0.16659390     0.02700
C1297       C  0.92449183  0.01556338  0.17091492     0.02700
C1298       C  0.90938299  0.03264044  0.15045225    -0.17800
H1299       H  0.91950544  0.05917949  0.15302383     0.04800
H1300       H  0.87029586  0.43757087  0.13955850     0.04800
C1301       C  0.61958676  0.14160320  0.36078426     0.02700
C1302       C  0.63696773  0.12172938  0.35896498     0.02700
C1303       C  0.62389394  0.09161922  0.33730626    -0.17800
C1304       C  0.59305646  0.07928501  0.31857556     0.02700
C1305       C  0.57503608  0.09980665  0.32157287     0.02700
C1306       C  0.58923691  0.13056681  0.34136734    -0.17800
H1307       H  0.57562833  0.14544350  0.34360549     0.04800
H1308       H  0.63822950  0.07747799  0.33526341     0.04800
C1309       C  0.62103556  0.13527258  0.13796033     0.02700
C1310       C  0.64036685  0.11732043  0.13543176     0.02700
C1311       C  0.62900435  0.08702187  0.15507586    -0.17800
C1312       C  0.59859944  0.07355734  0.17603987     0.02700
C1313       C  0.57853086  0.09199939  0.17925891     0.02700
C1314       C  0.59086642  0.12249209  0.15973588    -0.17800
H1315       H  0.57690576  0.13701302  0.16171783     0.04800
H1316       H  0.64347233  0.07300684  0.15252047     0.04800
C1317       C  0.98197927  0.36676352  0.37826259     0.02700
C1318       C  0.51651566  0.38044149  0.37386548     0.02700
C1319       C  0.53299623  0.40888754  0.35024895    -0.17800
C1320       C  0.51585572  0.42432467  0.33035745     0.02700
C1321       C  0.98005639  0.40971115  0.33541776     0.02700
C1322       C  0.96447001  0.38166824  0.35936811    -0.17800
H1323       H  0.93782289  0.37056751  0.36260415     0.04800
H1324       H  0.55956609  0.41884545  0.34712711     0.04800
C1325       C  0.52073143  0.36661738  0.13745269     0.02700
C1326       C  0.98599694  0.35137369  0.14057596     0.02700
C1327       C  0.96943205  0.36508993  0.16546363    -0.17800
C1328       C  0.98617111  0.39469750  0.18650401     0.02700
C1329       C  0.52212294  0.41134784  0.18228142     0.02700
C1330       C  0.53841340  0.39610295  0.15899271    -0.17800
H1331       H  0.56499562  0.40833588  0.15541738     0.04800
H1332       H  0.94278436  0.35246321  0.16787635     0.04800
C1333       C  0.67149968  0.22326118  0.10418750    -0.20800
C1334       C  0.65002041  0.22732820  0.07678958    -0.08900
C1335       C  0.61884011  0.20128068  0.07038802     0.30000
C1336       C  0.60967859  0.17160654  0.09057363    -0.20800
C1337       C  0.63123210  0.16741927  0.11773856    -0.08900
C1338       C  0.66207132  0.19376601  0.12498186     0.30000
F1339       F  0.68286803  0.19114159  0.15249295    -0.19400
H1340       H  0.69541972  0.24320904  0.11006763     0.18300
H1341       H  0.58585021  0.15157411  0.08449165     0.18300
F1342       F  0.59759021  0.20411388  0.04375658    -0.19400
C1343       C  0.56326451  0.34531202  0.12418256    -0.20800
C1344       C  0.53888497  0.35368693  0.10931800    -0.08900
C1345       C  0.53271144  0.35077824  0.06728186     0.30000
C1346       C  0.55036983  0.33939450  0.04075588    -0.20800
C1347       C  0.57522862  0.33135450  0.05521604    -0.08900
C1348       C  0.58134153  0.33422233  0.09748584     0.30000
F1349       F  0.60535820  0.32734781  0.11296817    -0.19400
H1350       H  0.56848781  0.34768574  0.15651836     0.18300
H1351       H  0.54519320  0.33796468  0.00846299     0.18300
F1352       F  0.51060433  0.36033612  0.05153311    -0.19400
C1353       C  0.80655025  0.46258443  0.11217451    -0.20800
C1354       C  0.83692170  0.46336334  0.09908170    -0.08900
C1355       C  0.83816461  0.44532779  0.06412394     0.30000
C1356       C  0.80925244  0.42550904  0.04386209    -0.20800
C1357       C  0.77863661  0.42329935  0.05810845    -0.08900
C1358       C  0.77746845  0.44255362  0.09188284     0.30000
F1359       F  0.74809149  0.43976827  0.10730199    -0.19400
H1360       H  0.80522685  0.47628069  0.13924471     0.18300
H1361       H  0.81049457  0.41037864  0.01824143     0.18300
F1362       F  0.86724305  0.44607829  0.05045828    -0.19400
C1363       C  0.64861069  0.20228551  0.44988197    -0.20800
C1364       C  0.65291154  0.23187907  0.43188803    -0.08900
C1365       C  0.64636148  0.23184273  0.39016215     0.30000
C1366       C  0.63595333  0.20255620  0.36694564    -0.20800
C1367       C  0.63124173  0.17283574  0.38525164    -0.08900
C1368       C  0.63714365  0.17297712  0.42722081     0.30000
F1369       F  0.63075773  0.14455338  0.44666284    -0.19400
H1370       H  0.65255444  0.20154960  0.48227997     0.18300
H1371       H  0.63137112  0.20297505  0.33470062     0.18300
F1372       F  0.65021779  0.26002601  0.37194266    -0.19400
C1373       C  0.55285647  0.35094907  0.37194002    -0.22600
C1374       C  0.53550120  0.36539870  0.39473686    -0.08900
C1375       C  0.53454662  0.36356942  0.43755985     0.30000
C1376       C  0.55123968  0.34818965  0.45712598    -0.20800
C1377       C  0.56936370  0.33451445  0.43453339    -0.08900
C1378       C  0.56963370  0.33550605  0.39167245     0.30000
F1379       F  0.58843995  0.32414274  0.36916852    -0.19400
H1380       H  0.55362008  0.35193286  0.33889620     0.18300
H1381       H  0.55206814  0.34909132  0.49020277     0.18300
F1382       F  0.51867087  0.37797522  0.46051169    -0.19400
C1383       C  0.76128060  0.44856899  0.39263164    -0.20800
C1384       C  0.76224276  0.42694405  0.42238705    -0.08900
C1385       C  0.79268493  0.42723558  0.43203098     0.30000
C1386       C  0.82121990  0.44785096  0.41111956    -0.20800
C1387       C  0.82002826  0.46892493  0.38101138    -0.08900
C1388       C  0.78999428  0.46954333  0.37217753     0.30000
F1389       F  0.78833813  0.48962012  0.34295587    -0.19400
H1390       H  0.73820334  0.44903842  0.38489260     0.18300
H1391       H  0.84439864  0.44730647  0.41819614     0.18300
F1392       F  0.79480218  0.40681525  0.46046454    -0.19400
C1393       C  0.55385727  0.17821241  0.91229123    -0.20800
C1394       C  0.53088143  0.17844945  0.88423222    -0.08900
C1395       C  0.52893841  0.20799169  0.87631033     0.30000
C1396       C  0.55007574  0.23697974  0.89593603    -0.20800
C1397       C  0.57355865  0.23695653  0.92354572    -0.08900
C1398       C  0.57506220  0.20716681  0.93186371     0.30000
F1399       F  0.59806124  0.20623235  0.95720155    -0.19400
H1400       H  0.55580185  0.15557836  0.91832048     0.18300
H1401       H  0.54839144  0.25959522  0.88905710     0.18300
F1402       F  0.50767414  0.20905966  0.84831676    -0.19400
C1403       C  0.63847603  0.46760545  0.93450651    -0.20800
C1404       C  0.63557777  0.46577905  0.89186884    -0.08900
C1405       C  0.64939980  0.44796690  0.86887182     0.30000
C1406       C  0.66447975  0.43090990  0.88867140    -0.20800
C1407       C  0.66599469  0.43161169  0.93147998    -0.08900
C1408       C  0.65366911  0.45084169  0.95414712     0.30000
F1409       F  0.65365297  0.45090033  0.99561701    -0.19400
H1410       H  0.62805956  0.48132940  0.95269680     0.18300
H1411       H  0.67261612  0.41511730  0.87085282     0.18300
F1412       F  0.64750136  0.44639682  0.82751694    -0.19400
C1413       C  0.83134070  0.35911334  0.57687140    -0.20800
C1414       C  0.83171296  0.36670934  0.61879445    -0.08900
C1415       C  0.80301269  0.36591551  0.63793792     0.30000
C1416       C  0.77451398  0.35755544  0.61540447    -0.20800
C1417       C  0.77401663  0.34905441  0.57392860    -0.08900
C1418       C  0.80247448  0.34963192  0.55472743     0.30000
F1419       F  0.80248851  0.34168327  0.51449254    -0.19400
H1420       H  0.85338787  0.36027900  0.56139269     0.18300
H1421       H  0.75255247  0.35699249  0.63050659     0.18300
F1422       F  0.80237026  0.37259876  0.67851564    -0.19400
C1423       C  0.79718152  0.36653193  0.87068720    -0.20800
C1424       C  0.82669726  0.36966513  0.88825711    -0.08900
C1425       C  0.82637201  0.36242492  0.92986449     0.30000
C1426       C  0.79707682  0.35130954  0.95282364    -0.20800
C1427       C  0.76767448  0.34844619  0.93549413    -0.08900
C1428       C  0.76794959  0.35632822  0.89416060     0.30000
F1429       F  0.74004668  0.35411328  0.87655822    -0.19400
H1430       H  0.79686789  0.37214884  0.83876995     0.18300
H1431       H  0.79776353  0.34660379  0.98500489     0.18300
F1432       F  0.85465146  0.36732234  0.94880955    -0.19400
C1433       C  0.65370369  0.43347230  0.62663034    -0.20800
C1434       C  0.64661333  0.45878957  0.61201599    -0.08900
C1435       C  0.65088447  0.46578452  0.57016514     0.30000
C1436       C  0.66266153  0.44844834  0.54377867    -0.20800
C1437       C  0.66928198  0.42264143  0.55784933    -0.08900
C1438       C  0.66483835  0.41539741  0.59984983     0.30000
F1439       F  0.67006982  0.39025520  0.61485081    -0.19400
H1440       H  0.65018107  0.42744763  0.65874611     0.18300
H1441       H  0.66528433  0.45453927  0.51169410     0.18300
F1442       F  0.64206214  0.48829942  0.55422572    -0.19400
C1443       C  0.58062600  0.18867800  0.54547633    -0.20800
C1444       C  0.58078948  0.21904364  0.55653351    -0.08900
C1445       C  0.55802875  0.22009944  0.58595233     0.30000
C1446       C  0.53708825  0.19133527  0.60613804    -0.20800
C1447       C  0.53807437  0.16116063  0.59638404    -0.08900
C1448       C  0.55928981  0.15993903  0.56486300     0.30000
F1449       F  0.56009507  0.13106955  0.55375364    -0.19400
H1450       H  0.59797649  0.18743632  0.52270303     0.18300
H1451       H  0.52112813  0.19286186  0.63059615     0.18300
F1452       F  0.55785093  0.24916863  0.59736629    -0.19400
C1453       C  0.93385054  0.16566513  0.60566604    -0.20800
C1454       C  0.93218912  0.16369394  0.56289806    -0.08900
C1455       C  0.94918634  0.14838122  0.54100781     0.30000
C1456       C  0.96603802  0.13373340  0.56168847    -0.20800
C1457       C  0.96603731  0.13394588  0.60450928    -0.08900
C1458       C  0.95063769  0.15080566  0.62644459     0.30000
F1459       F  0.45142996  0.15237864  0.66786254    -0.19400
H1460       H  0.92000126  0.17640446  0.62305094     0.18300
H1461       H  0.97836815  0.12137125  0.54435182     0.18300
F1462       F  0.94723826  0.14537751  0.49968186    -0.19400
C1463       C  0.83702352  0.08656344  0.40290661    -0.20800
C1464       C  0.82985768  0.07672095  0.44383512    -0.08900
C1465       C  0.83411972  0.04909082  0.45639633     0.30000
C1466       C  0.84637917  0.03275463  0.42923779    -0.20800
C1467       C  0.85313077  0.04215420  0.38833101    -0.08900
C1468       C  0.84852787  0.06941540  0.37529307     0.30000
F1469       F  0.85542043  0.07962250  0.33607861    -0.19400
H1470       H  0.83453651  0.10801075  0.39251368     0.18300
H1471       H  0.85103720  0.01280919  0.44055861     0.18300
F1472       F  0.82719309  0.03804485  0.49528636    -0.19400
C1473       C  0.73839072  0.05192149  0.60892550    -0.20800
C1474       C  0.73774723  0.07398315  0.57960431    -0.08900
C1475       C  0.70746626  0.07411669  0.57004814     0.30000
C1476       C  0.67881016  0.05358561  0.59079059    -0.20800
C1477       C  0.67962879  0.03189205  0.62027750    -0.08900
C1478       C  0.70950591  0.03086588  0.62900501     0.30000
F1479       F  0.71087430  0.01035573  0.65782969    -0.19400
H1480       H  0.76133846  0.05110927  0.61652599     0.18300
H1481       H  0.65578523  0.05453252  0.58388026     0.18300
F1482       F  0.70559949  0.09475631  0.54174270    -0.19400
C1483       C  0.94278010  0.27807801  0.41443808    -0.20800
C1484       C  0.92051851  0.27969321  0.44419343    -0.08900
C1485       C  0.92099671  0.31039239  0.45458157     0.30000
C1486       C  0.94220999  0.33860441  0.43426841    -0.20800
C1487       C  0.96300976  0.33686406  0.40269215    -0.08900
C1488       C  0.96361506  0.30640679  0.39330270     0.30000
F1489       F  0.98250497  0.30355967  0.36188592    -0.19400
H1490       H  0.94227721  0.25458460  0.40543623     0.18300
H1491       H  0.94151024  0.36179216  0.44212454     0.18300
F1492       F  0.89963754  0.31287628  0.48299937    -0.19400
C1493       C  0.69439073  0.16289129  0.37537857    -0.20800
C1494       C  0.66862965  0.13137776  0.38028191    -0.08900
C1495       C  0.67267085  0.10944250  0.40704856     0.30000
C1496       C  0.70165751  0.11918643  0.42897063    -0.20800
C1497       C  0.72677178  0.15114974  0.42538329    -0.08900
C1498       C  0.72298570  0.17296625  0.39826070     0.30000
F1499       F  0.74721864  0.20373706  0.39315083    -0.19400
H1500       H  0.69211318  0.17990485  0.35425955     0.18300
H1501       H  0.70414718  0.10196753  0.44958844     0.18300
F1502       F  0.64810563  0.07898763  0.41316267    -0.19400
C1503       C  0.88308404  0.28906556  0.57231033    -0.20800
C1504       C  0.85036994  0.26506082  0.57223284    -0.08900
C1505       C  0.82675483  0.27051610  0.59627803     0.30000
C1506       C  0.83618259  0.29942014  0.62034570    -0.20800
C1507       C  0.86888457  0.32415992  0.61892900    -0.08900
C1508       C  0.89208127  0.31847343  0.59417464     0.30000
F1509       F  0.92338160  0.34201526  0.58951819    -0.19400
H1510       H  0.90165430  0.28581938  0.55344730     0.18300
H1511       H  0.81781080  0.30273538  0.63946333     0.18300
F1512       F  0.79483835  0.24790453  0.59678529    -0.19400
C1513       C  0.69330049  0.03824571  0.88638940    -0.20800
C1514       C  0.66297440  0.03710937  0.90027476    -0.08900
C1515       C  0.66170898  0.05429979  0.93599218     0.30000
C1516       C  0.69061454  0.07372597  0.95631416    -0.20800
C1517       C  0.72118026  0.07638630  0.94128057    -0.08900
C1518       C  0.72237951  0.05784287  0.90680578     0.30000
F1519       F  0.75173441  0.06090413  0.89096886    -0.19400
H1520       H  0.69452665  0.02501036  0.85883060     0.18300
H1521       H  0.68941167  0.08828876  0.98259195     0.18300
F1522       F  0.63261035  0.05300894  0.95045558    -0.19400
C1523       C  0.70071172  0.13038752  0.12844195    -0.20800
C1524       C  0.67167694  0.12860347  0.11084857    -0.08900
C1525       C  0.67256143  0.13658961  0.06943252     0.30000
C1526       C  0.70203227  0.14752279  0.04688919    -0.20800
C1527       C  0.73096314  0.14923547  0.06433602    -0.08900
C1528       C  0.73003686  0.14018791  0.10526797     0.30000
F1529       F  0.75740006  0.14094062  0.12278057    -0.19400
H1530       H  0.70056715  0.12397240  0.16013488     0.18300
H1531       H  0.70183748  0.15303703  0.01489143     0.18300
F1532       F  0.64464274  0.13246733  0.05017181    -0.19400
C1533       C  0.94499214  0.15792233  0.96009529    -0.20800
C1534       C  0.92344243  0.17026433  0.94515935    -0.08900
C1535       C  0.91991633  0.17071331  0.90252559     0.30000
C1536       C  0.93698516  0.15827803  0.87591877    -0.20800
C1537       C  0.95797184  0.14557170  0.89131972    -0.08900
C1538       C  0.96182991  0.14554308  0.93364931     0.30000
F1539       F  0.98124868  0.13264824  0.94953473    -0.19400
H1540       H  0.94814193  0.15677875  0.99260892     0.18300
H1541       H  0.93395439  0.15864735  0.84325502     0.18300
F1542       F  0.89980850  0.18272621  0.88653169    -0.19400
C1543       C  0.84993105  0.05086102  0.12749764    -0.20800
C1544       C  0.86632487  0.03502716  0.10552785    -0.08900
C1545       C  0.86740628  0.03589737  0.06269346     0.30000
C1546       C  0.85302577  0.05308688  0.04223374    -0.20800
C1547       C  0.83733142  0.06968012  0.06405464    -0.08900
C1548       C  0.83556906  0.06822010  0.10689846     0.30000
F1549       F  0.82258988  0.08592293  0.12879759    -0.19400
H1550       H  0.84884900  0.05026204  0.16056432     0.18300
H1551       H  0.85602565  0.05530095  0.00933822     0.18300
F1552       F  0.88369123  0.52134184  0.04080896    -0.19400
C1553       C  0.94479287  0.26217820  0.10845236    -0.20800
C1554       C  0.92220838  0.26252793  0.07967037    -0.08900
C1555       C  0.92178175  0.29258544  0.07002354     0.30000
C1556       C  0.94317820  0.32149671  0.08943301    -0.20800
C1557       C  0.96563523  0.32098607  0.11807432    -0.08900
C1558       C  0.96646413  0.29121057  0.12742362     0.30000
F1559       F  0.48743998  0.29012460  0.15582752    -0.19400
H1560       H  0.94570198  0.23937488  0.11630752     0.18300
H1561       H  0.94211237  0.34439514  0.08241859     0.18300
F1562       F  0.90002290  0.29395860  0.04299278    -0.19400
C1563       C  0.88865308  0.32692824  0.90747298    -0.20800
C1564       C  0.86697152  0.33116376  0.88063825    -0.08900
C1565       C  0.83566738  0.30523641  0.87441502     0.30000
C1566       C  0.82573926  0.27629845  0.89644198    -0.20800
C1567       C  0.84732550  0.27228305  0.92366827    -0.08900
C1568       C  0.87910455  0.29769964  0.92858572     0.30000
F1569       F  0.90068050  0.29466932  0.95453590    -0.19400
H1570       H  0.91286347  0.34661884  0.91268497     0.18300
H1571       H  0.80143688  0.25669086  0.89149934     0.18300
F1572       F  0.81485979  0.30777758  0.84685026    -0.19400
O1573       O  0.86105327  0.61944044  0.03107975    -0.80400
O1574       O  0.85868387  0.73149812  0.95419892    -0.65100
O1575       O  0.84074758  0.66763299  0.03457717    -1.11700
C1576       C  0.75073684  0.60445777  0.95542128     1.06500
O1577       O  0.80674172  0.72501986  0.95557462    -0.78300
O1578       O  0.76777784  0.67963014  0.01209362    -0.65900
Ni1579     Ni  0.87644298  0.66184129  0.05577947     1.34900
C1580       C  0.75988945  0.65621833  0.03715026     0.85200
O1581       O  0.88762021  0.73231999  0.02527587    -0.78900
O1582       O  0.89303583  0.70485687  0.07901429    -0.89100
C1583       C  0.83702200  0.74115050  0.94542065     0.84800
O1584       O  0.90808905  0.67795772  0.01248466    -0.67300
O1585       O  0.74975035  0.63224193  0.95278523    -0.86600
C1586       C  0.90276724  0.67891310  0.97495348     0.85600
C1587       C  0.89941045  0.73147631  0.06027274     1.07200
H1588       H  0.82247523  0.66226747  0.94050342     0.39000
O1589       O  0.81508024  0.66744471  0.96652107    -1.09300
O1590       O  0.77326273  0.63628002  0.03627907    -0.65900
Ni1591     Ni  0.80835799  0.63289762  0.00332447     1.26300
O1592       O  0.87946488  0.68529721  0.96319113    -0.66200
O1593       O  0.77495438  0.60056511  0.97005209    -0.78500
C1594       C  0.83440778  0.59682864  0.04369149     0.85000
O1595       O  0.80732631  0.59916627  0.03965486    -0.65600
Ni1596     Ni  0.77966539  0.67797640  0.95601980     1.27400
Ni1597     Ni  0.85124039  0.70007207  0.99484632     1.26100
H1598       H  0.82999373  0.67339044  0.05726766     0.39500
O1599       O  0.77199580  0.69061113  0.46219567    -0.80400
O1600       O  0.90097715  0.69211542  0.53932637    -0.65100
O1601       O  0.83096042  0.68420697  0.46905803    -1.11700
C1602       C  0.76877594  0.59717968  0.56028568     1.06500
O1603       O  0.88168937  0.63847171  0.53161736    -0.78300
O1604       O  0.82358153  0.59149183  0.51176027    -0.65900
Ni1605     Ni  0.81892497  0.71912745  0.46273798     1.34900
C1606       C  0.82198005  0.59714908  0.47448908     0.85200
O1607       O  0.89755975  0.72515183  0.47111114    -0.78900
O1608       O  0.86461617  0.75017063  0.45912993    -0.89100
C1609       C  0.90410723  0.66552477  0.54340048     0.84800
O1610       O  0.81743369  0.72858949  0.52020113    -0.67300
O1611       O  0.79554906  0.60404138  0.57902307    -0.86600
C1612       C  0.84213882  0.73685675  0.54333415     0.85600
C1613       C  0.89286376  0.74963829  0.45897909     1.07200
H1614       H  0.82621297  0.66761391  0.55880954     0.39000
O1615       O  0.83218421  0.65740995  0.53570129    -1.09300
O1616       O  0.81523468  0.62037446  0.46348642    -0.65900
Ni1617     Ni  0.79925875  0.64687582  0.49641158     1.26300
O1618       O  0.86296190  0.72470896  0.53886628    -0.66200
O1619       O  0.76772561  0.60924415  0.52560138    -0.78500
C1620       C  0.75720744  0.66106170  0.44877899     0.85000
O1621       O  0.76749236  0.63960112  0.45608284    -0.65600
Ni1622     Ni  0.83889689  0.62200983  0.55600886     1.27400
Ni1623     Ni  0.86627667  0.69071181  0.50436164     1.26100
H1624       H  0.83596958  0.67797722  0.44218450     0.39500
O1625       O  0.93258055  0.53771980  0.70670831    -0.74000
O1626       O  0.89161877  0.97033393  0.79111315    -0.74000
O1627       O  0.92648672  0.54302681  0.78813663    -0.74100
O1628       O  0.89743163  0.96791894  0.70998926    -0.74100
O1629       O  0.94354131  0.96554104  0.72366580    -0.74000
O1630       O  0.97053083  0.53552114  0.80002596    -0.74000
O1631       O  0.94087347  0.97539285  0.80554577    -0.74000
O1632       O  0.97767019  0.53164767  0.71704089    -0.74100
Ni1633     Ni  0.90974410  0.50504047  0.74924579     1.25400
Ni1634     Ni  0.95953759  0.50194338  0.76121115     1.25400
C1635       C  0.96355428  0.54659600  0.69905489     0.88200
C1636       C  0.91058806  0.95883376  0.80698762     0.88100
C1637       C  0.95598301  0.55374602  0.80233002     0.88200
C1638       C  0.91608215  0.95285193  0.70584928     0.88300
O1639       O  0.60608595  0.56557242  0.71229158    -0.74000
O1640       O  0.56525088  0.60640933  0.78966795    -0.74000
O1641       O  0.60120571  0.56848593  0.79496722    -0.74100
O1642       O  0.56803304  0.60155860  0.70677049    -0.74100
O1643       O  0.53332827  0.54980302  0.69682315    -0.74000
O1644       O  0.54933547  0.53369339  0.80489842    -0.74000
O1645       O  0.51937041  0.56653657  0.77003205    -0.74000
O1646       O  0.56586213  0.51972664  0.73154122    -0.74100
Ni1647     Ni  0.58795954  0.58833005  0.75089751     1.25400
Ni1648     Ni  0.54016381  0.54065431  0.75084715     1.25400
C1649       C  0.59201073  0.53380173  0.71120441     0.88200
C1650       C  0.53341971  0.59235805  0.79080602     0.88100
C1651       C  0.57943602  0.54244306  0.81208063     0.88200
C1652       C  0.54205737  0.57978293  0.68952622     0.88300
O1653       O  0.53763990  0.93338148  0.79450954    -0.74000
O1654       O  0.96983259  0.89195357  0.71160108    -0.74000
O1655       O  0.54276038  0.92703352  0.71347019    -0.74100
O1656       O  0.96806974  0.89861472  0.79233399    -0.74100
O1657       O  0.96533516  0.94433461  0.77794099    -0.74000
O1658       O  0.53518959  0.97091368  0.70114161    -0.74000
O1659       O  0.97454536  0.94081323  0.69625453    -0.74000
O1660       O  0.53140071  0.97829017  0.78398201    -0.74100
Ni1661     Ni  0.50486584  0.91045909  0.75267431     1.25400
Ni1662     Ni  0.50153916  0.95999038  0.74008957     1.25400
C1663       C  0.54643448  0.96422941  0.80189180     0.88200
C1664       C  0.95785328  0.91057836  0.69600644     0.88100
C1665       C  0.55356067  0.95649352  0.69928565     0.88200
C1666       C  0.95296968  0.91722421  0.79637186     0.88300
C1667       C  0.98436104  0.61856417  0.62579115     0.02700
C1668       C  0.51877383  0.63137622  0.62085214     0.02700
C1669       C  0.53583767  0.61657485  0.64071645    -0.17800
C1670       C  0.51978069  0.58927344  0.66570328     0.02700
C1671       C  0.98399599  0.57503818  0.67064229     0.02700
C1672       C  0.96735122  0.59059950  0.65007681    -0.17800
H1673       H  0.94082075  0.58117175  0.65319926     0.04800
H1674       H  0.56249093  0.62728895  0.63763832     0.04800
C1675       C  0.63356909  0.97714117  0.63993038     0.02700
C1676       C  0.64915742  0.51181210  0.64308867     0.02700
C1677       C  0.63507904  0.52864084  0.66703108    -0.17800
C1678       C  0.60473193  0.51232327  0.68698649     0.02700
C1679       C  0.58782309  0.97646097  0.68282855     0.02700
C1680       C  0.60340609  0.95987728  0.66059306    -0.17800
H1681       H  0.59091794  0.93337906  0.65706802     0.04800
H1682       H  0.64793354  0.55520686  0.66933030     0.04800
C1683       C  0.87723789  0.86324437  0.86052252     0.02700
C1684       C  0.85786731  0.88110376  0.86334476     0.02700
C1685       C  0.86922920  0.91151829  0.84412004    -0.17800
C1686       C  0.89988792  0.92532468  0.82374530     0.02700
C1687       C  0.92023003  0.90712329  0.82063718     0.02700
C1688       C  0.90765459  0.87631477  0.83930959    -0.17800
H1689       H  0.92167396  0.86185233  0.83724285     0.04800
H1690       H  0.85462786  0.92539533  0.84672835     0.04800
C1691       C  0.86227534  0.87614236  0.64221410     0.02700
C1692       C  0.87951996  0.85611786  0.64241021     0.02700
C1693       C  0.90940947  0.86782411  0.66312985    -0.17800
C1694       C  0.92380296  0.89934892  0.68069185     0.02700
C1695       C  0.90572286  0.91974148  0.68237663     0.02700
C1696       C  0.87508092  0.90687270  0.66291228    -0.17800
H1697       H  0.86122540  0.92148597  0.66264690     0.04800
H1698       H  0.92262118  0.85260331  0.66396423     0.04800
C1699       C  0.61968377  0.98423652  0.87184723     0.02700
C1700       C  0.63258863  0.51847744  0.87706928     0.02700
C1701       C  0.61717130  0.53578973  0.85919490    -0.17800
C1702       C  0.58922817  0.52003878  0.83516306     0.02700
C1703       C  0.57505590  0.98442760  0.82974225     0.02700
C1704       C  0.59104770  0.96755924  0.84883345    -0.17800
H1705       H  0.58149991  0.94111177  0.84542090     0.04800
H1706       H  0.62797705  0.56232935  0.86288747     0.04800
C1707       C  0.51108240  0.64811158  0.86101723     0.02700
C1708       C  0.97633506  0.63266330  0.86344646     0.02700
C1709       C  0.95909633  0.60287109  0.84226944    -0.17800
C1710       C  0.97584409  0.58769326  0.81953374     0.02700
C1711       C  0.51182660  0.60462443  0.81568652     0.02700
C1712       C  0.52811368  0.63440638  0.83672838    -0.17800
H1713       H  0.55476218  0.64719066  0.83474773     0.04800
H1714       H  0.93250225  0.59046661  0.84553975     0.04800
O1715       O  0.61824244  0.85870820  0.46935704    -0.80400
O1716       O  0.73230537  0.86036436  0.54616805    -0.65100
O1717       O  0.66894396  0.84213334  0.46459354    -1.11700
C1718       C  0.60847060  0.74914444  0.54218969     1.06500
O1719       O  0.72925730  0.81021270  0.53672750    -0.78300
O1720       O  0.68271837  0.76770707  0.48486227    -0.65900
Ni1721     Ni  0.66107212  0.87708440  0.44529979     1.34900
C1722       C  0.65986842  0.76063838  0.45919174     0.85200
O1723       O  0.73248986  0.89122917  0.47630024    -0.78900
O1724       O  0.70454627  0.89657307  0.42295052    -0.89100
C1725       C  0.74353946  0.83934810  0.55133924     0.84800
O1726       O  0.67510158  0.90741334  0.48995048    -0.67300
O1727       O  0.63709159  0.75005251  0.54645425    -0.86600
C1728       C  0.67703074  0.90190749  0.52721467     0.85600
C1729       C  0.73133132  0.90351196  0.44173159     1.07200
H1730       H  0.66321953  0.82105859  0.55730357     0.39000
O1731       O  0.66937792  0.81497767  0.53102883    -1.09300
O1732       O  0.64027159  0.77440847  0.45956045    -0.65900
Ni1733     Ni  0.63475315  0.80748395  0.49412094     1.26300
O1734       O  0.68416599  0.87886445  0.53798389    -0.66200
O1735       O  0.60323010  0.77206004  0.52594143    -0.78500
C1736       C  0.59676960  0.83209340  0.45511929     0.85000
O1737       O  0.60054828  0.80570137  0.45782784    -0.65600
Ni1738     Ni  0.68250986  0.78123143  0.54040994     1.27400
Ni1739     Ni  0.70109713  0.85302889  0.50491760     1.26100
H1740       H  0.67582256  0.83277049  0.44143229     0.39500
O1741       O  0.69048871  0.77464145  0.04479520    -0.80400
O1742       O  0.69345081  0.90016103  0.95704479    -0.65100
O1743       O  0.68342831  0.83290676  0.03307415    -1.11700
C1744       C  0.59690042  0.76821029  0.94210359     1.06500
O1745       O  0.63975949  0.88216392  0.96452977    -0.78300
O1746       O  0.59166026  0.82598909  0.98768243    -0.65900
Ni1747     Ni  0.71816672  0.82159937  0.04507935     1.34900
C1748       C  0.59630320  0.82355540  0.02513798     0.85200
O1749       O  0.72551371  0.89950073  0.02712650    -0.78900
O1750       O  0.74865464  0.86716711  0.04889826    -0.89100
C1751       C  0.66711678  0.90364077  0.95187844     0.84800
O1752       O  0.73196132  0.81985672  0.98975578    -0.67300
O1753       O  0.60330749  0.79456379  0.92275372    -0.86600
C1754       C  0.73906004  0.84207857  0.96312088     0.85600
C1755       C  0.74882789  0.89525467  0.04391372     1.07200
H1756       H  0.66767199  0.82531339  0.94255223     0.39000
O1757       O  0.65746077  0.83197933  0.96502783    -1.09300
O1758       O  0.61884684  0.81593824  0.03687480    -0.65900
Ni1759     Ni  0.64653439  0.80011560  0.00585702     1.26300
O1760       O  0.72518433  0.86151711  0.96237209    -0.66200
O1761       O  0.60947979  0.76771640  0.97662884    -0.78500
C1762       C  0.66030108  0.75882369  0.05555371     0.85000
O1763       O  0.63887110  0.76903002  0.04745844    -0.65600
Ni1764     Ni  0.62233811  0.83857931  0.94315334     1.27400
Ni1765     Ni  0.69107885  0.86689197  0.99496841     1.26100
H1766       H  0.67628369  0.83900428  0.05869420     0.39500
O1767       O  0.96771269  0.52165395  0.21719840    -0.74000
O1768       O  0.52454300  0.55895174  0.30474404    -0.74000
O1769       O  0.96411354  0.52955982  0.29983874    -0.74100
O1770       O  0.53380268  0.55540146  0.22297458    -0.74100
O1771       O  0.53150618  0.60130715  0.20851241    -0.74000
O1772       O  0.95659453  0.57331634  0.28685271    -0.74000
O1773       O  0.52965615  0.60797993  0.28954435    -0.74000
O1774       O  0.96207523  0.56677035  0.20590549    -0.74100
Ni1775     Ni  0.99762939  0.54000936  0.26091090     1.25400
Ni1776     Ni  0.99470782  0.58967409  0.24801984     1.25400
C1777       C  0.95301675  0.53581687  0.19886241     0.88200
C1778       C  0.54126947  0.58914011  0.30548235     0.88100
C1779       C  0.94572608  0.54392583  0.30123930     0.88200
C1780       C  0.54623584  0.58240265  0.20428053     0.88300
O1781       O  0.93373675  0.98018064  0.27095559    -0.74000
O1782       O  0.97936789  0.93295942  0.23213174    -0.74000
O1783       O  0.94942639  0.96603171  0.19752113    -0.74100
O1784       O  0.96613624  0.94967578  0.30553333    -0.74100
O1785       O  0.93098037  0.89810698  0.29579209    -0.74000
O1786       O  0.89752099  0.93154122  0.20775176    -0.74000
O1787       O  0.93316859  0.89326971  0.21296405    -0.74000
O1788       O  0.89319331  0.93461113  0.29036518    -0.74100
Ni1789     Ni  0.95897238  0.95898670  0.25152759     1.25400
Ni1790     Ni  0.91090167  0.91158483  0.25181512     1.25400
C1791       C  0.90746213  0.96636532  0.29106341     0.88200
C1792       C  0.96498532  0.90713742  0.21157151     0.88100
C1793       C  0.91930766  0.95744938  0.19036564     0.88200
C1794       C  0.95735335  0.91962295  0.31264280     0.88300
C1795       C  0.86582036  0.52367622  0.36024192     0.02700
C1796       C  0.85034410  0.98893929  0.35785476     0.02700
C1797       C  0.86444003  0.97193311  0.33444369    -0.17800
C1798       C  0.89471751  0.98810768  0.31440564     0.02700
C1799       C  0.91147195  0.52402220  0.31765345     0.02700
C1800       C  0.89585283  0.54077634  0.33928640    -0.17800
H1801       H  0.90839229  0.56729868  0.34240810     0.04800
H1802       H  0.85170364  0.94533181  0.33277228     0.04800
O1803       O  0.52148896  0.96763034  0.28427355    -0.74000
O1804       O  0.55754999  0.52377530  0.19545817    -0.74000
O1805       O  0.52797355  0.96366241  0.20127234    -0.74100
O1806       O  0.55501727  0.53360777  0.27738235    -0.74100
O1807       O  0.60145334  0.53154192  0.29010989    -0.74000
O1808       O  0.57195984  0.95597688  0.21288251    -0.74000
O1809       O  0.60690098  0.52865605  0.20898780    -0.74000
O1810       O  0.56684234  0.96195439  0.29418173    -0.74100
Ni1811     Ni  0.53913715  0.99725349  0.23994840     1.25400
Ni1812     Ni  0.58908967  0.99427292  0.25125192     1.25400
C1813       C  0.53590605  0.95290946  0.30209922     0.88200
C1814       C  0.58786644  0.54018096  0.19337098     0.88100
C1815       C  0.54234041  0.94529673  0.19908111     0.88200
C1816       C  0.58264561  0.54641556  0.29471772     0.88300
C1817       C  0.88097967  0.51614251  0.12702259     0.02700
C1818       C  0.86715848  0.98176122  0.12294482     0.02700
C1819       C  0.88166615  0.96416439  0.14242371    -0.17800
C1820       C  0.90966087  0.97981861  0.16659383     0.02700
C1821       C  0.92449189  0.51556341  0.17091501     0.02700
C1822       C  0.90938303  0.53264047  0.15045239    -0.17800
H1823       H  0.91950549  0.55917952  0.15302394     0.04800
H1824       H  0.87029583  0.93757084  0.13955838     0.04800
C1825       C  0.61958657  0.64160314  0.36078449     0.02700
C1826       C  0.63696763  0.62172940  0.35896511     0.02700
C1827       C  0.62389393  0.59161931  0.33730624    -0.17800
C1828       C  0.59305645  0.57928505  0.31857557     0.02700
C1829       C  0.57503601  0.59980662  0.32157292     0.02700
C1830       C  0.58923675  0.63056674  0.34136751    -0.17800
H1831       H  0.57562811  0.64544337  0.34360570     0.04800
H1832       H  0.63822956  0.57747814  0.33526328     0.04800
C1833       C  0.62103541  0.63527251  0.13796006     0.02700
C1834       C  0.64036678  0.61732043  0.13543159     0.02700
C1835       C  0.62900433  0.58702189  0.15507575    -0.17800
C1836       C  0.59859943  0.57355736  0.17603978     0.02700
C1837       C  0.57853080  0.59199936  0.17925877     0.02700
C1838       C  0.59086628  0.62249201  0.15973563    -0.17800
H1839       H  0.57690558  0.63701289  0.16171753     0.04800
H1840       H  0.64347234  0.57300690  0.15252042     0.04800
C1841       C  0.98197901  0.86676336  0.37826256     0.02700
C1842       C  0.51651551  0.88044150  0.37386564     0.02700
C1843       C  0.53299614  0.90888757  0.35024914    -0.17800
C1844       C  0.51585566  0.92432470  0.33035755     0.02700
C1845       C  0.98005615  0.90971106  0.33541783     0.02700
C1846       C  0.96446976  0.88166808  0.35936805    -0.17800
H1847       H  0.93782263  0.87056730  0.36260400     0.04800
H1848       H  0.55956600  0.91884547  0.34712735     0.04800
C1849       C  0.52073130  0.86661725  0.13745287     0.02700
C1850       C  0.98599668  0.85137358  0.14057612     0.02700
C1851       C  0.96943183  0.86508989  0.16546372    -0.17800
C1852       C  0.98617092  0.89469744  0.18650414     0.02700
C1853       C  0.52212283  0.91134777  0.18228150     0.02700
C1854       C  0.53841327  0.89610283  0.15899285    -0.17800
H1855       H  0.56499550  0.90833574  0.15541753     0.04800
H1856       H  0.94278413  0.85246323  0.16787640     0.04800
C1857       C  0.67149950  0.72326107  0.10418711    -0.20800
C1858       C  0.65002020  0.72732810  0.07678927    -0.08900
C1859       C  0.61883986  0.70128061  0.07038780     0.30000
C1860       C  0.60967836  0.67160646  0.09057341    -0.20800
C1861       C  0.63123191  0.66741919  0.11773827    -0.08900
C1862       C  0.66207115  0.69376592  0.12498150     0.30000
F1863       F  0.68286789  0.69114152  0.15249255    -0.19400
H1864       H  0.69541956  0.74320892  0.11006719     0.18300
H1865       H  0.58584996  0.65157404  0.08449149     0.18300
F1866       F  0.59758991  0.70411383  0.04375645    -0.19400
C1867       C  0.56326421  0.84531167  0.12418271    -0.20800
C1868       C  0.53888483  0.85368683  0.10931815    -0.08900
C1869       C  0.53271146  0.85077840  0.06728198     0.30000
C1870       C  0.55036988  0.83939474  0.04075594    -0.20800
C1871       C  0.57522853  0.83135453  0.05521610    -0.08900
C1872       C  0.58134124  0.83422203  0.09748595     0.30000
F1873       F  0.60535771  0.82734721  0.11296829    -0.19400
H1874       H  0.56848737  0.84768517  0.15651854     0.18300
H1875       H  0.54519340  0.83796515  0.00846303     0.18300
F1876       F  0.51060445  0.86033645  0.05153328    -0.19400
C1877       C  0.80655022  0.96258429  0.11217437    -0.20800
C1878       C  0.83692170  0.96336329  0.09908151    -0.08900
C1879       C  0.83816464  0.94532778  0.06412372     0.30000
C1880       C  0.80925248  0.92550895  0.04386191    -0.20800
C1881       C  0.77863663  0.92329917  0.05810832    -0.08900
C1882       C  0.77746843  0.94255341  0.09188272     0.30000
F1883       F  0.74809146  0.93976797  0.10730191    -0.19400
H1884       H  0.80522680  0.97628053  0.13924457     0.18300
H1885       H  0.81049463  0.91037859  0.01824121     0.18300
F1886       F  0.86724311  0.94607839  0.05045800    -0.19400
C1887       C  0.64861040  0.70228534  0.44988233    -0.20800
C1888       C  0.65291120  0.73187890  0.43188845    -0.08900
C1889       C  0.64636105  0.73184258  0.39016261     0.30000
C1890       C  0.63595291  0.70255608  0.36694605    -0.20800
C1891       C  0.63124143  0.67283563  0.38525197    -0.08900
C1892       C  0.63714338  0.67297696  0.42722113     0.30000
F1893       F  0.63075753  0.64455322  0.44666309    -0.19400
H1894       H  0.65255420  0.70154941  0.48228031     0.18300
H1895       H  0.63137066  0.70297495  0.33470105     0.18300
F1896       F  0.65021727  0.76002586  0.37194318    -0.19400
C1897       C  0.55285639  0.85094915  0.37194006    -0.22600
C1898       C  0.53550098  0.86539859  0.39473697    -0.08900
C1899       C  0.53454618  0.86356898  0.43755996     0.30000
C1900       C  0.55123927  0.84818918  0.45712599    -0.20800
C1901       C  0.56936350  0.83451426  0.43453332    -0.08900
C1902       C  0.56963361  0.83550608  0.39167239     0.30000
F1903       F  0.58843997  0.82414295  0.36916838    -0.19400
H1904       H  0.55362012  0.85193315  0.33889625     0.18300
H1905       H  0.55206761  0.84909064  0.49020279     0.18300
F1906       F  0.51867021  0.87797448  0.46051190    -0.19400
C1907       C  0.76128064  0.94856890  0.39263183    -0.20800
C1908       C  0.76224285  0.92694408  0.42238735    -0.08900
C1909       C  0.79268509  0.92723587  0.43203155     0.30000
C1910       C  0.82122005  0.94785130  0.41112013    -0.20800
C1911       C  0.82002832  0.96892509  0.38101176    -0.08900
C1912       C  0.78999430  0.96954331  0.37217777     0.30000
F1913       F  0.78833808  0.98961999  0.34295600    -0.19400
H1914       H  0.73820333  0.94903819  0.38489264     0.18300
H1915       H  0.84439884  0.94730697  0.41819685     0.18300
F1916       F  0.79480243  0.90681578  0.46046537    -0.19400
C1917       C  0.55385740  0.67821265  0.91229097    -0.20800
C1918       C  0.53088159  0.67844966  0.88423191    -0.08900
C1919       C  0.52893849  0.70799186  0.87631002     0.30000
C1920       C  0.55007573  0.73697992  0.89593578    -0.20800
C1921       C  0.57355860  0.73695672  0.92354555    -0.08900
C1922       C  0.57506222  0.70716704  0.93186354     0.30000
F1923       F  0.59806121  0.70623260  0.95720149    -0.19400
H1924       H  0.55580202  0.65557862  0.91832023     0.18300
H1925       H  0.54839139  0.75959538  0.88905686     0.18300
F1926       F  0.50767422  0.70905979  0.84831642    -0.19400
C1927       C  0.63847559  0.96760516  0.93450647    -0.20800
C1928       C  0.63557785  0.96577904  0.89186874    -0.08900
C1929       C  0.64940036  0.94796727  0.86887186     0.30000
C1930       C  0.66448029  0.93091032  0.88867161    -0.20800
C1931       C  0.66599466  0.93161177  0.93148022    -0.08900
C1932       C  0.65366857  0.95084140  0.95414726     0.30000
F1933       F  0.65365183  0.95089965  0.99561716    -0.19400
H1934       H  0.62805877  0.98132886  0.95269663     0.18300
H1935       H  0.67261707  0.91511802  0.87085308     0.18300
F1936       F  0.64750239  0.94639748  0.82751694    -0.19400
C1937       C  0.83134061  0.85911316  0.57687143    -0.20800
C1938       C  0.83171288  0.86670910  0.61879451    -0.08900
C1939       C  0.80301258  0.86591510  0.63793806     0.30000
C1940       C  0.77451386  0.85755506  0.61540464    -0.20800
C1941       C  0.77401652  0.84905417  0.57392872    -0.08900
C1942       C  0.80247436  0.84963171  0.55472750     0.30000
F1943       F  0.80248837  0.84168305  0.51449261    -0.19400
H1944       H  0.85338779  0.86027888  0.56139268     0.18300
H1945       H  0.75255234  0.85699202  0.63050682     0.18300
F1946       F  0.80237012  0.87259814  0.67851583    -0.19400
C1947       C  0.79718137  0.86653168  0.87068694    -0.20800
C1948       C  0.82669709  0.86966484  0.88825688    -0.08900
C1949       C  0.82637181  0.86242461  0.92986425     0.30000
C1950       C  0.79707661  0.85130925  0.95282338    -0.20800
C1951       C  0.76767430  0.84844596  0.93549385    -0.08900
C1952       C  0.76794944  0.85632800  0.89416033     0.30000
F1953       F  0.74004656  0.85411314  0.87655794    -0.19400
H1954       H  0.79686777  0.87214862  0.83876970     0.18300
H1955       H  0.79776330  0.84660348  0.98500463     0.18300
F1956       F  0.85465124  0.86732202  0.94880935    -0.19400
C1957       C  0.65370343  0.93347231  0.62663007    -0.20800
C1958       C  0.64661339  0.95878978  0.61201572    -0.08900
C1959       C  0.65088501  0.96578499  0.57016493     0.30000
C1960       C  0.66266208  0.94844876  0.54377855    -0.20800
C1961       C  0.66928212  0.92264160  0.55784922    -0.08900
C1962       C  0.66483814  0.91539741  0.59984966     0.30000
F1963       F  0.67006928  0.89025502  0.61485066    -0.19400
H1964       H  0.65018050  0.92744748  0.65874580     0.18300
H1965       H  0.66528522  0.95453985  0.51169402     0.18300
F1966       F  0.64206314  0.98830020  0.55422545    -0.19400
C1967       C  0.58062548  0.68867815  0.54547615    -0.20800
C1968       C  0.58078919  0.71904380  0.55653376    -0.08900
C1969       C  0.55802870  0.72009961  0.58595293     0.30000
C1970       C  0.53708820  0.69133539  0.60613853    -0.20800
C1971       C  0.53807414  0.66116073  0.59638413    -0.08900
C1972       C  0.55928931  0.65993913  0.56486276     0.30000
F1973       F  0.56009434  0.63106962  0.55375304    -0.19400
H1974       H  0.59797580  0.68743648  0.52270259     0.18300
H1975       H  0.52112827  0.69286196  0.63059691     0.18300
F1976       F  0.55785115  0.74916884  0.59736732    -0.19400
C1977       C  0.93385072  0.66566511  0.60566574    -0.20800
C1978       C  0.93218919  0.66369385  0.56289777    -0.08900
C1979       C  0.94918636  0.64838110  0.54100747     0.30000
C1980       C  0.96603804  0.63373326  0.56168808    -0.20800
C1981       C  0.96603740  0.63394578  0.60450889    -0.08900
C1982       C  0.95063788  0.65080564  0.62644425     0.30000
F1983       F  0.45143124  0.65238024  0.66786197    -0.19400
H1984       H  0.92000149  0.67640448  0.62305068     0.18300
H1985       H  0.97836811  0.62137107  0.54435140     0.18300
F1986       F  0.94723820  0.64537737  0.49968153    -0.19400
C1987       C  0.83702379  0.58656344  0.40290658    -0.20800
C1988       C  0.82985774  0.57672080  0.44383501    -0.08900
C1989       C  0.83411959  0.54909056  0.45639615     0.30000
C1990       C  0.84637903  0.53275436  0.42923761    -0.20800
C1991       C  0.85313080  0.54215406  0.38833089    -0.08900
C1992       C  0.84852813  0.56941541  0.37529303     0.30000
F1993       F  0.85542092  0.57962268  0.33607866    -0.19400
H1994       H  0.83453696  0.60801086  0.39251373     0.18300
H1995       H  0.85103691  0.51280882  0.44055838     0.18300
F1996       F  0.82719279  0.53804447  0.49528612    -0.19400
C1997       C  0.73839088  0.55192172  0.60892637    -0.20800
C1998       C  0.73774726  0.57398272  0.57960430    -0.08900
C1999       C  0.70746613  0.57411558  0.57004730     0.30000
C2000       C  0.67881004  0.55358461  0.59078984    -0.20800
C2001       C  0.67962882  0.53189173  0.62027760    -0.08900
C2002       C  0.70950607  0.53086615  0.62900591     0.30000
F2003       F  0.71087455  0.51035663  0.65783141    -0.19400
H2004       H  0.76133872  0.55110999  0.61652754     0.18300
H2005       H  0.65578500  0.55453105  0.58387891     0.18300
F2006       F  0.70559917  0.59475443  0.54174090    -0.19400
C2007       C  0.94277987  0.77807781  0.41443792    -0.20800
C2008       C  0.92051829  0.77969298  0.44419329    -0.08900
C2009       C  0.92099644  0.81039214  0.45458144     0.30000
C2010       C  0.94220970  0.83860418  0.43426830    -0.20800
C2011       C  0.96300948  0.83686386  0.40269205    -0.08900
C2012       C  0.96361481  0.80640661  0.39330256     0.30000
F2013       F  0.98250473  0.80355953  0.36188576    -0.19400
H2014       H  0.94227701  0.75458441  0.40543606     0.18300
H2015       H  0.94150992  0.86179191  0.44212445     0.18300
F2016       F  0.89963725  0.81287600  0.48299923    -0.19400
C2017       C  0.69439053  0.66289140  0.37537911    -0.20800
C2018       C  0.66862954  0.63137777  0.38028208    -0.08900
C2019       C  0.67267084  0.60944234  0.40704836     0.30000
C2020       C  0.70165751  0.61918617  0.42897039    -0.20800
C2021       C  0.72677168  0.65114957  0.42538342    -0.08900
C2022       C  0.72298549  0.67296627  0.39826124     0.30000
F2023       F  0.74721831  0.70373720  0.39315178    -0.19400
H2024       H  0.69211292  0.67990511  0.35426037     0.18300
H2025       H  0.70414725  0.60196713  0.44958788     0.18300
F2026       F  0.64810572  0.57898736  0.41316214    -0.19400
C2027       C  0.88308404  0.78906541  0.57231030    -0.20800
C2028       C  0.85036994  0.76506065  0.57223285    -0.08900
C2029       C  0.82675484  0.77051596  0.59627803     0.30000
C2030       C  0.83618261  0.79942000  0.62034571    -0.20800
C2031       C  0.86888459  0.82415979  0.61892897    -0.08900
C2032       C  0.89208127  0.81847331  0.59417457     0.30000
F2033       F  0.92338156  0.84201517  0.58951802    -0.19400
H2034       H  0.90165428  0.78581923  0.55344724     0.18300
H2035       H  0.81781082  0.80273524  0.63946335     0.18300
F2036       F  0.79483834  0.74790442  0.59678524    -0.19400
C2037       C  0.69330034  0.53824570  0.88638962    -0.20800
C2038       C  0.66297425  0.53710941  0.90027492    -0.08900
C2039       C  0.66170882  0.55429984  0.93599233     0.30000
C2040       C  0.69061435  0.57372595  0.95631437    -0.20800
C2041       C  0.72118007  0.57638624  0.94128083    -0.08900
C2042       C  0.72237933  0.55784281  0.90680605     0.30000
F2043       F  0.75173423  0.56090403  0.89096918    -0.19400
H2044       H  0.69452650  0.52501034  0.85883083     0.18300
H2045       H  0.68941148  0.58828873  0.98259216     0.18300
F2046       F  0.63261019  0.55300904  0.95045566    -0.19400
C2047       C  0.70071169  0.63038760  0.12844204    -0.20800
C2048       C  0.67167694  0.62860352  0.11084853    -0.08900
C2049       C  0.67256154  0.63658970  0.06943247     0.30000
C2050       C  0.70203242  0.64752283  0.04688924    -0.20800
C2051       C  0.73096324  0.64923551  0.06433619    -0.08900
C2052       C  0.73003689  0.64018801  0.10526818     0.30000
F2053       F  0.75740007  0.64094084  0.12278094    -0.19400
H2054       H  0.70056705  0.62397251  0.16013499     0.18300
H2055       H  0.70183772  0.65303708  0.01489146     0.18300
F2056       F  0.64464292  0.63246753  0.05017166    -0.19400
C2057       C  0.94499221  0.65792247  0.96009510    -0.20800
C2058       C  0.92344236  0.67026431  0.94515918    -0.08900
C2059       C  0.91991615  0.67071316  0.90252542     0.30000
C2060       C  0.93698505  0.65827794  0.87591860    -0.20800
C2061       C  0.95797190  0.64557181  0.89131954    -0.08900
C2062       C  0.96183005  0.64554330  0.93364912     0.30000
F2063       F  0.98124896  0.63264862  0.94953453    -0.19400
H2064       H  0.94814207  0.65677898  0.99260873     0.18300
H2065       H  0.93395419  0.65864717  0.84325486     0.18300
F2066       F  0.89980816  0.68272584  0.88653153    -0.19400
C2067       C  0.84993079  0.55086077  0.12749748    -0.20800
C2068       C  0.86632498  0.53502719  0.10552788    -0.08900
C2069       C  0.86740683  0.53589765  0.06269352     0.30000
C2070       C  0.85302640  0.55308715  0.04223362    -0.20800
C2071       C  0.83733165  0.56968010  0.06405434    -0.08900
C2072       C  0.83556886  0.56821983  0.10689814     0.30000
F2073       F  0.82258931  0.58592241  0.12879712    -0.19400
H2074       H  0.84884839  0.55026159  0.16056415     0.18300
H2075       H  0.85602660  0.55530141  0.00933815     0.18300
F2076       F  0.88369035  0.02134132  0.04080870    -0.19400
C2077       C  0.94479255  0.76217808  0.10845256    -0.20800
C2078       C  0.92220806  0.76252779  0.07967056    -0.08900
C2079       C  0.92178135  0.79258528  0.07002384     0.30000
C2080       C  0.94317782  0.82149657  0.08943328    -0.20800
C2081       C  0.96563492  0.82098595  0.11807451    -0.08900
C2082       C  0.96646381  0.79121045  0.12742382     0.30000
F2083       F  0.48744018  0.79012453  0.15582734    -0.19400
H2084       H  0.94570169  0.73937476  0.11630769     0.18300
H2085       H  0.94211196  0.84439499  0.08241890     0.18300
F2086       F  0.90002242  0.79395842  0.04299317    -0.19400
C2087       C  0.88865293  0.82692815  0.90747308    -0.20800
C2088       C  0.86697147  0.83116360  0.88063813    -0.08900
C2089       C  0.83566740  0.80523620  0.87441467     0.30000
C2090       C  0.82573925  0.77629824  0.89644163    -0.20800
C2091       C  0.84732537  0.77228291  0.92366816    -0.08900
C2092       C  0.87910437  0.79769954  0.92858582     0.30000
F2093       F  0.90068021  0.79466927  0.95453622    -0.19400
H2094       H  0.91286326  0.84661879  0.91268523     0.18300
H2095       H  0.80143692  0.75669059  0.89149882     0.18300
F2096       F  0.81485995  0.80777733  0.84684968    -0.19400
loop_ 
_geom_bond_atom_site_label_1 
_geom_bond_atom_site_label_2 
_geom_bond_distance 
_geom_bond_site_symmetry_2 
_ccdc_geom_bond_type 
O1           Ni7   1.898       .  S
O1           C22   1.261       .  A
O2          Ni25   1.884       .  S
O2           C11   1.266       .  A
O3           Ni7   1.884       .  S
O3          Ni25   1.876   1_554  S
O3          Ni19   1.913       .  S
O3           H26   0.966       .  S
C4           O21   1.280       .  A
C4           O13   1.277       .  A
C4          C469   1.463       .  S
O5          Ni24   1.939       .  S
O5           C11   1.277       .  A
O6          Ni24   1.908   1_554  S
O6            C8   1.272       .  A
Ni7          O10   1.900       .  S
Ni7          O12   1.903       .  S
C8           O18   1.277       .  A
C8          C479   1.478       .  S
O9          Ni25   1.937   1_554  S
O9           C15   1.283       .  A
O10          C15   1.276       .  A
C11         C519   1.471       .  S
O12          C14   1.263   1_554  A
O13         Ni24   1.919       .  S
C14          O20   1.270       .  A
C14         C486   1.488       .  S
C15         C506   1.473       .  S
H16          O17   0.966       .  S
O17         Ni25   1.903       .  S
O17         Ni19   1.907   1_556  S
O17         Ni24   1.887       .  S
O18         Ni19   1.947       .  S
Ni19         O23   1.937       .  S
Ni19         O21   1.922   1_554  S
O20         Ni25   1.937       .  S
C22          O23   1.276       .  A
C22         C499   1.463       .  S
O27         Ni33   1.943       .  S
O27          C48   1.279       .  A
O28         Ni51   1.936       .  S
O28          C37   1.276       .  A
O29         Ni33   1.888       .  S
O29         Ni51   1.902       .  S
O29         Ni45   1.901       .  S
O29          H52   0.968       .  S
C30          O47   1.281       .  A
C30          O39   1.276       .  A
C30         C426   1.474       .  S
O31         Ni50   1.901       .  S
O31          C37   1.262       .  A
O32         Ni50   1.899       .  S
O32          C34   1.263       .  A
Ni33         O36   1.928       .  S
Ni33         O38   1.925       .  S
C34          O44   1.270       .  A
C34         C416   1.483       .  S
O35         Ni51   1.924       .  S
O35          C41   1.283       .  A
O36          C41   1.280       .  A
C37         C406   1.463       .  S
O38          C40   1.273       .  A
O39         Ni50   1.903       .  S
C40          O46   1.275       .  A
C40         C456   1.485       .  S
C41         C436   1.473       .  S
H42          O43   0.967       .  S
O43         Ni51   1.917       .  S
O43         Ni45   1.880       .  S
O43         Ni50   1.885       .  S
O44         Ni45   1.934       .  S
Ni45         O49   1.888       .  S
Ni45         O47   1.935       .  S
O46         Ni51   1.937       .  S
C48          O49   1.268       .  A
C48         C449   1.473       .  S
O53         Ni61   1.972       .  S
O53          C63   1.292       .  A
O54        Ni585   1.985       .  S
O54          C64   1.296       .  A
O55         Ni61   1.989       .  S
O55          C65   1.295       .  A
O56        Ni585   1.974       .  S
O56          C66   1.289       .  A
O57        Ni586   1.912       .  S
O57          C66   1.267       .  A
O58         Ni62   1.857       .  S
O58          C65   1.250       .  A
O59        Ni586   1.845       .  S
O59          C64   1.240       .  A
O60         Ni62   1.909       .  S
O60          C63   1.268       .  A
Ni61        O578   1.985   1_545  S
Ni61        O580   1.974   1_545  S
Ni61        Ni62   2.345       .  S
Ni62        O581   1.912   1_545  S
Ni62        O583   1.845   1_545  S
C63          C99   1.535       .  S
C64         C114   1.488       .  S
C65         C138   1.505       .  S
C66         C123   1.549       .  S
O67         Ni75   1.979       .  S
O67          C77   1.293       .  A
O68         Ni75   1.979       .  S
O68          C78   1.292       .  A
O69         Ni75   1.949       .  S
O69          C79   1.291       .  A
O70         Ni75   1.952       .  S
O70          C80   1.292       .  A
O71         Ni76   1.888       .  S
O71          C80   1.262       .  A
O72         Ni76   1.891       .  S
O72          C79   1.263       .  A
O73         Ni76   1.871       .  S
O73          C78   1.252       .  A
O74         Ni76   1.869       .  S
O74          C77   1.252       .  A
Ni75        Ni76   2.295       .  S
C77         C106   1.519       .  S
C78         C139   1.520       .  S
C79         C130   1.490       .  S
C80          C98   1.489       .  S
O81         Ni89   1.960       .  S
O81          C91   1.290       .  A
O82       Ni1137   1.977       .  S
O82          C92   1.295       .  A
O83         Ni89   1.988       .  S
O83          C93   1.296       .  A
O84       Ni1137   1.968       .  S
O84          C94   1.289       .  A
O85       Ni1138   1.907       .  S
O85          C94   1.265       .  A
O86         Ni90   1.858       .  S
O86          C93   1.251       .  A
O87       Ni1138   1.846       .  S
O87          C92   1.242       .  A
O88         Ni90   1.907       .  S
O88          C91   1.268       .  A
Ni89       O1130   1.977   1_455  S
Ni89       O1132   1.968   1_455  S
Ni89        Ni90   2.347       .  S
Ni90       O1133   1.907   1_455  S
Ni90       O1135   1.846   1_455  S
C91         C131   1.526       .  S
C92         C122   1.487       .  S
C93         C107   1.504       .  S
C94         C115   1.545       .  S
C95         C409   1.479       .  S
C95         C100   1.412       .  A
C95        C1144   1.406       .  A
C96         C399   1.487       .  S
C96          C97   1.393       .  A
C96        C1143   1.406   1_455  A
C97          C98   1.400       .  A
C97         H102   1.085       .  S
C98        C1147   1.460   1_455  A
C99         C100   1.415       .  A
C99        C1146   1.460       .  A
C100        H101   1.084       .  S
C103        C386   1.489       .  S
C103        C108   1.405       .  A
C103        C628   1.414       .  A
C104        C429   1.473       .  S
C104        C105   1.396       .  A
C104        C627   1.414   1_545  A
C105        C106   1.395       .  A
C105        H110   1.085       .  S
C106        C631   1.466   1_545  A
C107        C108   1.406       .  A
C107        C630   1.466       .  A
C108        H109   1.084       .  S
C111        C516   1.481       .  S
C111        C112   1.417       .  A
C111        C116   1.407       .  A
C112        C376   1.496       .  S
C112        C113   1.400       .  A
C113        C114   1.403       .  A
C113        H118   1.085       .  S
C114        C115   1.468       .  A
C115        C116   1.404       .  A
C116        H117   1.084       .  S
C119        C366   1.481       .  S
C119        C120   1.420       .  A
C119        C124   1.414       .  A
C120        C459   1.506       .  S
C120        C121   1.401       .  A
C121        C122   1.399       .  A
C121        H126   1.084       .  S
C122        C123   1.465       .  A
C123        C124   1.407       .  A
C124        H125   1.084       .  S
C127        C356   1.481       .  S
C127        C132   1.407       .  A
C127        C652   1.404       .  A
C128        C466   1.478       .  S
C128        C129   1.392       .  A
C128        C651   1.404   1_545  A
C129        C130   1.399       .  A
C129        H134   1.085       .  S
C130        C655   1.458   1_545  A
C131        C132   1.414       .  A
C131        C654   1.458       .  A
C132        H133   1.084       .  S
C135        C346   1.476       .  S
C135        C140   1.397       .  A
C135       C1184   1.412   1_455  A
C136        C489   1.484       .  S
C136        C137   1.405       .  A
C136       C1183   1.412       .  A
C137        C138   1.407       .  A
C137        H142   1.084       .  S
C138       C1187   1.466       .  A
C139        C140   1.396       .  A
C139       C1186   1.466   1_455  A
C140        H141   1.085       .  S
O143       Ni149   1.897       .  S
O143        C164   1.261       .  A
O144       Ni167   1.892       .  S
O144        C153   1.266       .  A
O145       Ni149   1.882       .  S
O145       Ni167   1.879       .  S
O145       Ni161   1.916       .  S
O145        H168   0.966       .  S
C146        O163   1.283       .  A
C146        O155   1.281       .  A
C146        C396   1.470       .  S
O147       Ni166   1.943       .  S
O147        C153   1.275       .  A
O148       Ni166   1.906       .  S
O148        C150   1.270       .  A
Ni149       O152   1.900       .  S
Ni149       O154   1.901       .  S
C150        O160   1.277       .  A
C150        C316   1.479       .  S
O151       Ni167   1.938       .  S
O151        C157   1.284       .  A
O152        C157   1.277       .  A
C153        C369   1.462       .  S
O154        C156   1.263       .  A
O155       Ni166   1.926       .  S
C156        O162   1.271       .  A
C156        C389   1.489       .  S
C157        C336   1.475       .  S
H158        O159   0.966       .  S
O159       Ni167   1.901       .  S
O159       Ni161   1.903       .  S
O159       Ni166   1.886       .  S
O160       Ni161   1.946       .  S
Ni161       O165   1.940       .  S
Ni161       O163   1.925       .  S
O162       Ni167   1.941       .  S
C164        O165   1.277       .  A
C164        C329   1.464       .  S
O169       Ni175   1.940       .  S
O169        C190   1.277       .  A
O170       Ni193   1.936       .  S
O170        C179   1.275       .  A
O171       Ni175   1.891       .  S
O171       Ni193   1.907   1_554  S
O171       Ni187   1.907       .  S
O171        H194   0.966       .  S
C172        O189   1.282       .  A
C172        O181   1.276       .  A
C172        C349   1.475       .  S
O173       Ni192   1.898       .  S
O173        C179   1.262       .  A
O174       Ni192   1.902       .  S
O174        C176   1.264   1_556  A
Ni175       O178   1.921       .  S
Ni175       O180   1.911   1_554  S
C176        O186   1.272       .  A
C176        C299   1.488       .  S
O177       Ni193   1.929   1_554  S
O177        C183   1.282       .  A
O178        C183   1.277       .  A
C179        C359   1.461       .  S
O180        C182   1.272       .  A
O181       Ni192   1.903       .  S
C182        O188   1.276       .  A
C182        C379   1.481       .  S
C183        C309   1.469       .  S
H184        O185   0.966       .  S
O185       Ni193   1.918       .  S
O185       Ni187   1.882   1_556  S
O185       Ni192   1.888       .  S
O186       Ni187   1.937       .  S
Ni187       O191   1.895       .  S
Ni187       O189   1.936   1_554  S
O188       Ni193   1.942       .  S
C190        O191   1.268       .  A
C190        C286   1.476       .  S
O195       Ni203   1.904       .  S
O195        C205   1.267       .  A
O196      Ni1251   1.843   1_455  S
O196        C206   1.240       .  A
O197       Ni203   1.855       .  S
O197        C207   1.249       .  A
O198      Ni1251   1.908   1_455  S
O198        C208   1.266       .  A
O199      Ni1252   1.966   1_455  S
O199        C208   1.287       .  A
O200       Ni204   1.986       .  S
O200        C207   1.295       .  A
O201      Ni1252   1.985   1_455  S
O201        C206   1.297       .  A
O202       Ni204   1.963       .  S
O202        C205   1.291       .  A
Ni203      O1244   1.843       .  S
Ni203      O1246   1.908       .  S
Ni203      Ni204   2.346       .  S
Ni204      O1247   1.966       .  S
Ni204      O1249   1.985       .  S
C205        C249   1.526       .  S
C206        C257   1.488       .  S
C207        C227   1.503       .  S
C208        C265   1.544       .  S
O209       Ni217   1.862       .  S
O209        C219   1.251       .  A
O210       Ni217   1.865       .  S
O210        C220   1.251       .  A
O211       Ni217   1.896       .  S
O211        C221   1.265       .  A
O212       Ni217   1.894       .  S
O212        C222   1.263       .  A
O213       Ni218   1.958       .  S
O213        C222   1.292       .  A
O214       Ni218   1.955       .  S
O214        C221   1.292       .  A
O215       Ni218   1.974       .  S
O215        C220   1.292       .  A
O216       Ni218   1.975       .  S
O216        C219   1.293       .  A
Ni217      Ni218   2.295       .  S
C219        C226   1.516       .  S
C220        C280   1.514       .  S
C221        C248   1.497       .  S
C222        C273   1.498       .  S
C223        C419   1.487       .  S
C223        C228   1.404       .  A
C223        C748   1.415   1_545  A
C224        C339   1.473       .  S
C224        C225   1.393       .  A
C224        C747   1.415       .  A
C225        C226   1.393       .  A
C225        H230   1.085       .  S
C226        C751   1.465       .  A
C227        C228   1.403       .  A
C227        C750   1.465   1_545  A
C228        H229   1.084       .  S
O231       Ni239   1.909       .  S
O231        C241   1.268       .  A
O232       Ni763   1.846   1_545  S
O232        C242   1.241       .  A
O233       Ni239   1.854       .  S
O233        C243   1.249       .  A
O234       Ni763   1.908   1_545  S
O234        C244   1.266       .  A
O235       Ni764   1.970   1_545  S
O235        C244   1.289       .  A
O236       Ni240   1.989       .  S
O236        C243   1.295       .  A
O237       Ni764   1.985   1_545  S
O237        C242   1.296       .  A
O238       Ni240   1.968       .  S
O238        C241   1.291       .  A
Ni239       O756   1.846       .  S
Ni239       O758   1.908       .  S
Ni239      Ni240   2.345       .  S
Ni240       O759   1.970       .  S
Ni240       O761   1.985       .  S
C241        C272   1.532       .  S
C242        C264   1.490       .  S
C243        C281   1.503       .  S
C244        C256   1.546       .  S
C245        C496   1.479       .  S
C245        C250   1.407       .  A
C245        C770   1.404   1_545  A
C246        C306   1.483       .  S
C246        C247   1.396       .  A
C246        C769   1.404       .  A
C247        C248   1.403       .  A
C247        H252   1.085       .  S
C248        C773   1.460       .  A
C249        C250   1.414       .  A
C249        C772   1.460   1_545  A
C250        H251   1.084       .  S
C253        C319   1.494       .  S
C253        C254   1.418       .  A
C253        C258   1.400       .  A
C254        C446   1.485       .  S
C254        C255   1.407       .  A
C255        C256   1.404       .  A
C255        H260   1.084       .  S
C256        C257   1.468       .  A
C257        C258   1.403       .  A
C258        H259   1.085       .  S
C261        C289   1.486       .  S
C261        C262   1.419       .  A
C261        C266   1.407       .  A
C262        C476   1.495       .  S
C262        C263   1.402       .  A
C263        C264   1.403       .  A
C263        H268   1.085       .  S
C264        C265   1.466       .  A
C265        C266   1.405       .  A
C266        H267   1.084       .  S
C269        C439   1.488       .  S
C269        C274   1.397       .  A
C269       C1318   1.408       .  A
C270        C326   1.484       .  S
C270        C271   1.412       .  A
C270       C1317   1.408   1_455  A
C271        C272   1.417       .  A
C271        H276   1.084       .  S
C272       C1321   1.460   1_455  A
C273        C274   1.401       .  A
C273       C1320   1.460       .  A
C274        H275   1.085       .  S
C277        C296   1.483       .  S
C277        C282   1.404       .  A
C277       C1326   1.412   1_455  A
C278        C509   1.472       .  S
C278        C279   1.393       .  A
C278       C1325   1.412       .  A
C279        C280   1.393       .  A
C279        H284   1.085       .  S
C280       C1329   1.465       .  A
C281        C282   1.403       .  A
C281       C1328   1.465   1_455  A
C282        H283   1.084       .  S
C285        C286   1.405       .  A
C285        C290   1.398       .  A
C285        H292   1.083       .  S
C286        C287   1.406       .  A
C287        C288   1.397       .  A
C287        F294   1.357       .  S
C288        C289   1.405       .  A
C288        H293   1.083       .  S
C289        C290   1.406       .  A
C290        F291   1.357       .  S
C295        C296   1.404       .  A
C295        C300   1.402       .  A
C295        H302   1.083       .  S
C296        C297   1.403       .  A
C297        C298   1.393       .  A
C297        F304   1.358       .  S
C298        C299   1.409       .  A
C298        H303   1.083       .  S
C299        C300   1.410       .  A
C300        F301   1.357       .  S
C305        C306   1.407       .  A
C305        C310   1.403       .  A
C305        H312   1.083       .  S
C306        C307   1.402       .  A
C307        C308   1.395       .  A
C307        F314   1.358       .  S
C308        C309   1.405       .  A
C308        H313   1.084       .  S
C309        C310   1.403       .  A
C310        F311   1.357       .  S
C315        C316   1.405       .  A
C315        C320   1.396       .  A
C315        H322   1.084       .  S
C316        C317   1.405       .  A
C317        C318   1.407       .  A
C317        F324   1.357       .  S
C318        C319   1.409       .  A
C318        H323   1.083       .  S
C319        C320   1.406       .  A
C320        F321   1.357       .  S
C325        C326   1.405       .  A
C325        C330   1.403       .  A
C325        H332   1.083       .  S
C326        C327   1.405       .  A
C327        C328   1.395       .  A
C327        F334   1.358       .  S
C328        C329   1.404       .  A
C328        H333   1.084       .  S
C329        C330   1.405       .  A
C330        F331   1.357       .  S
C335        C336   1.409       .  A
C335        C340   1.395       .  A
C335        H342   1.083       .  S
C336        C337   1.407       .  A
C337        C338   1.393       .  A
C337        F344   1.358       .  S
C338        C339   1.403       .  A
C338        H343   1.084       .  S
C339        C340   1.400       .  A
C340        F341   1.357       .  S
C345        C346   1.403       .  A
C345        C350   1.395       .  A
C345        H352   1.084       .  S
C346        C347   1.402       .  A
C347        C348   1.395       .  A
C347        F354   1.357       .  S
C348        C349   1.407       .  A
C348        H353   1.083       .  S
C349        C350   1.406       .  A
C350        F351   1.357       .  S
C355        C356   1.403       .  A
C355        C360   1.393       .  A
C355        H362   1.083       .  S
C356        C357   1.405       .  A
C357        C358   1.401       .  A
C357        F364   1.357       .  S
C358        C359   1.404       .  A
C358        H363   1.083       .  S
C359        C360   1.404       .  A
C360        F361   1.358       .  S
C365        C366   1.406       .  A
C365        C370   1.396       .  A
C365        H372   1.083       .  S
C366        C367   1.407       .  A
C367        C368   1.395       .  A
C367        F374   1.358       .  S
C368        C369   1.400       .  A
C368        H373   1.084       .  S
C369        C370   1.401       .  A
C370        F371   1.357       .  S
C375        C376   1.409       .  A
C375        C380   1.406       .  A
C375        H382   1.083       .  S
C376        C377   1.407       .  A
C377        C378   1.397       .  A
C377        F384   1.357       .  S
C378        C379   1.405       .  A
C378        H383   1.084       .  S
C379        C380   1.406       .  A
C380        F381   1.357       .  S
C385        C386   1.407       .  A
C385        C390   1.406       .  A
C385        H392   1.083       .  S
C386        C387   1.403       .  A
C387        C388   1.392       .  A
C387        F394   1.357       .  S
C388        C389   1.408       .  A
C388        H393   1.083       .  S
C389        C390   1.411       .  A
C390        F391   1.357       .  S
C395        C396   1.404       .  A
C395        C400   1.394       .  A
C395        H402   1.083       .  S
C396        C397   1.403       .  A
C397        C398   1.402       .  A
C397        F404   1.357       .  S
C398        C399   1.408       .  A
C398        H403   1.082       .  S
C399        C400   1.404       .  A
C400        F401   1.358       .  S
C405        C406   1.403       .  A
C405        C410   1.401       .  A
C405        H412   1.083       .  S
C406        C407   1.405       .  A
C407        C408   1.395       .  A
C407        F414   1.358       .  S
C408        C409   1.402       .  A
C408        H413   1.084       .  S
C409        C410   1.405       .  A
C410       F1459   1.357       .  S
F411       C1458   1.357       .  S
C415        C416   1.407       .  A
C415        C420   1.403       .  A
C415        H422   1.083       .  S
C416        C417   1.411       .  A
C417        C418   1.389       .  A
C417        F424   1.358       .  S
C418        C419   1.401       .  A
C418        H423   1.082       .  S
C419        C420   1.408       .  A
C420        F421   1.357       .  S
C425        C426   1.408       .  A
C425        C430   1.395       .  A
C425        H432   1.083       .  S
C426        C427   1.407       .  A
C427        C428   1.393       .  A
C427        F434   1.358       .  S
C428        C429   1.403       .  A
C428        H433   1.084       .  S
C429        C430   1.400       .  A
C430        F431   1.357       .  S
C435        C436   1.402       .  A
C435        C440   1.403       .  A
C435        H442   1.083       .  S
C436        C437   1.408       .  A
C437        C438   1.391       .  A
C437        F444   1.357       .  S
C438        C439   1.400       .  A
C438        H443   1.084       .  S
C439        C440   1.411       .  A
C440        F441   1.356       .  S
C445        C446   1.405       .  A
C445        C450   1.397       .  A
C445        H452   1.083       .  S
C446        C447   1.408       .  A
C447        C448   1.395       .  A
C447        F454   1.358       .  S
C448        C449   1.403       .  A
C448        H453   1.083       .  S
C449        C450   1.406       .  A
C450        F451   1.357       .  S
C455        C456   1.402       .  A
C455        C460   1.393       .  A
C455        H462   1.084       .  S
C456        C457   1.407       .  A
C457        C458   1.411       .  A
C457        F464   1.357       .  S
C458        C459   1.413       .  A
C458        H463   1.082       .  S
C459        C460   1.410       .  A
C460        F461   1.358       .  S
C465        C466   1.406       .  A
C465        C470   1.400       .  A
C465        H472   1.083       .  S
C466        C467   1.401       .  A
C467        C468   1.392       .  A
C467        F474   1.358       .  S
C468        C469   1.404       .  A
C468        H473   1.084       .  S
C469        C470   1.402       .  A
C470        F471   1.357       .  S
C475        C476   1.410       .  A
C475        C480   1.405       .  A
C475        H482   1.083       .  S
C476        C477   1.407       .  A
C477        C478   1.397       .  A
C477        F484   1.357       .  S
C478        C479   1.405       .  A
C478        H483   1.084       .  S
C479        C480   1.405       .  A
C480        F481   1.357       .  S
C485        C486   1.409       .  A
C485        C490   1.393       .  A
C485        H492   1.083       .  S
C486        C487   1.411       .  A
C487        C488   1.405       .  A
C487        F494   1.357       .  S
C488        C489   1.405       .  A
C488        H493   1.083       .  S
C489        C490   1.401       .  A
C490        F491   1.358       .  S
C495        C496   1.404       .  A
C495        C500   1.402       .  A
C495        H502   1.083       .  S
C496        C497   1.403       .  A
C497        C498   1.394       .  A
C497       F1028   1.358       .  S
C498        C499   1.403       .  A
C498        H503   1.084       .  S
C499        C500   1.405       .  A
C500        F501   1.357       .  S
F504       C1021   1.358       .  S
C505        C506   1.408       .  A
C505        C510   1.394       .  A
C505        H512   1.083       .  S
C506        C507   1.406       .  A
C507        C508   1.394       .  A
C507        F514   1.357       .  S
C508        C509   1.403       .  A
C508        H513   1.084       .  S
C509        C510   1.400       .  A
C510       F1559   1.357       .  S
F511       C1558   1.357       .  S
C515        C516   1.403       .  A
C515        C520   1.393       .  A
C515        H522   1.083       .  S
C516        C517   1.406       .  A
C517        C518   1.396       .  A
C517        F524   1.357       .  S
C518        C519   1.404       .  A
C518        H523   1.083       .  S
C519        C520   1.406       .  A
C520        F521   1.357       .  S
O525       Ni531   1.898       .  S
O525        C546   1.261       .  A
O526       Ni549   1.884       .  S
O526        C535   1.266       .  A
O527       Ni531   1.884       .  S
O527       Ni549   1.876   1_554  S
O527       Ni543   1.913       .  S
O527        H550   0.966       .  S
C528        O545   1.280       .  A
C528        O537   1.277       .  A
C528        C993   1.463       .  S
O529       Ni548   1.939       .  S
O529        C535   1.277       .  A
O530       Ni548   1.908   1_554  S
O530        C532   1.272       .  A
Ni531       O534   1.900       .  S
Ni531       O536   1.903       .  S
C532        O542   1.277       .  A
C532       C1003   1.478       .  S
O533       Ni549   1.937   1_554  S
O533        C539   1.283       .  A
O534        C539   1.276       .  A
C535       C1043   1.471       .  S
O536        C538   1.263   1_554  A
O537       Ni548   1.919       .  S
C538        O544   1.270       .  A
C538       C1010   1.488       .  S
C539       C1030   1.473       .  S
H540        O541   0.966       .  S
O541       Ni549   1.903       .  S
O541       Ni543   1.907   1_556  S
O541       Ni548   1.887       .  S
O542       Ni543   1.947       .  S
Ni543       O547   1.937       .  S
Ni543       O545   1.922   1_554  S
O544       Ni549   1.937       .  S
C546        O547   1.276       .  A
C546       C1023   1.463       .  S
O551       Ni557   1.943       .  S
O551        C572   1.279       .  A
O552       Ni575   1.936       .  S
O552        C561   1.276       .  A
O553       Ni557   1.888       .  S
O553       Ni575   1.902       .  S
O553       Ni569   1.901       .  S
O553        H576   0.968       .  S
C554        O571   1.281       .  A
C554        O563   1.276       .  A
C554        C950   1.474       .  S
O555       Ni574   1.901       .  S
O555        C561   1.262       .  A
O556       Ni574   1.899       .  S
O556        C558   1.263       .  A
Ni557       O560   1.928       .  S
Ni557       O562   1.925       .  S
C558        O568   1.270       .  A
C558        C940   1.483       .  S
O559       Ni575   1.924       .  S
O559        C565   1.283       .  A
O560        C565   1.280       .  A
C561        C930   1.463       .  S
O562        C564   1.273       .  A
O563       Ni574   1.903       .  S
C564        O570   1.275       .  A
C564        C980   1.485       .  S
C565        C960   1.473       .  S
H566        O567   0.967       .  S
O567       Ni575   1.917       .  S
O567       Ni569   1.880       .  S
O567       Ni574   1.885       .  S
O568       Ni569   1.934       .  S
Ni569       O573   1.888       .  S
Ni569       O571   1.935       .  S
O570       Ni575   1.937       .  S
C572        O573   1.268       .  A
C572        C973   1.473       .  S
O577       Ni585   1.972       .  S
O577        C587   1.292       .  A
O578        C588   1.296       .  A
O579       Ni585   1.989       .  S
O579        C589   1.295       .  A
O580        C590   1.289       .  A
O581        C590   1.267       .  A
O582       Ni586   1.857       .  S
O582        C589   1.250       .  A
O583        C588   1.240       .  A
O584       Ni586   1.909       .  S
O584        C587   1.268       .  A
Ni585      Ni586   2.345       .  S
C587        C623   1.535       .  S
C588        C638   1.488       .  S
C589        C662   1.505       .  S
C590        C647   1.549       .  S
O591       Ni599   1.979       .  S
O591        C601   1.293       .  A
O592       Ni599   1.979       .  S
O592        C602   1.292       .  A
O593       Ni599   1.949       .  S
O593        C603   1.291       .  A
O594       Ni599   1.952       .  S
O594        C604   1.292       .  A
O595       Ni600   1.888       .  S
O595        C604   1.262       .  A
O596       Ni600   1.891       .  S
O596        C603   1.263       .  A
O597       Ni600   1.871       .  S
O597        C602   1.252       .  A
O598       Ni600   1.869       .  S
O598        C601   1.252       .  A
Ni599      Ni600   2.295       .  S
C601        C630   1.519       .  S
C602        C663   1.520       .  S
C603        C654   1.490       .  S
C604        C622   1.489       .  S
O605       Ni613   1.960       .  S
O605        C615   1.290       .  A
O606      Ni1661   1.977       .  S
O606        C616   1.295       .  A
O607       Ni613   1.988       .  S
O607        C617   1.296       .  A
O608      Ni1661   1.968       .  S
O608        C618   1.289       .  A
O609      Ni1662   1.907       .  S
O609        C618   1.265       .  A
O610       Ni614   1.858       .  S
O610        C617   1.251       .  A
O611      Ni1662   1.846       .  S
O611        C616   1.242       .  A
O612       Ni614   1.907       .  S
O612        C615   1.268       .  A
Ni613      O1654   1.977   1_455  S
Ni613      O1656   1.968   1_455  S
Ni613      Ni614   2.347       .  S
Ni614      O1657   1.907   1_455  S
Ni614      O1659   1.846   1_455  S
C615        C655   1.526       .  S
C616        C646   1.487       .  S
C617        C631   1.504       .  S
C618        C639   1.545       .  S
C619        C933   1.479       .  S
C619       C1668   1.406       .  A
C619        C624   1.412       .  A
C620        C923   1.487       .  S
C620       C1667   1.406   1_455  A
C620        C621   1.393       .  A
C621        C622   1.400       .  A
C621        H626   1.085       .  S
C622       C1671   1.460   1_455  A
C623       C1670   1.460       .  A
C623        C624   1.415       .  A
C624        H625   1.084       .  S
C627        C910   1.489       .  S
C627        C632   1.405       .  A
C628        C953   1.473       .  S
C628        C629   1.396       .  A
C629        C630   1.395       .  A
C629        H634   1.085       .  S
C631        C632   1.406       .  A
C632        H633   1.084       .  S
C635       C1040   1.481       .  S
C635        C636   1.417       .  A
C635        C640   1.407       .  A
C636        C900   1.496       .  S
C636        C637   1.400       .  A
C637        C638   1.403       .  A
C637        H642   1.085       .  S
C638        C639   1.468       .  A
C639        C640   1.404       .  A
C640        H641   1.084       .  S
C643        C890   1.481       .  S
C643        C644   1.420       .  A
C643        C648   1.414       .  A
C644        C983   1.506       .  S
C644        C645   1.401       .  A
C645        C646   1.399       .  A
C645        H650   1.084       .  S
C646        C647   1.465       .  A
C647        C648   1.407       .  A
C648        H649   1.084       .  S
C651        C880   1.481       .  S
C651        C656   1.407       .  A
C652        C990   1.478       .  S
C652        C653   1.392       .  A
C653        C654   1.399       .  A
C653        H658   1.085       .  S
C655        C656   1.414       .  A
C656        H657   1.084       .  S
C659        C870   1.476       .  S
C659       C1708   1.412   1_455  A
C659        C664   1.397       .  A
C660       C1013   1.484       .  S
C660       C1707   1.412       .  A
C660        C661   1.405       .  A
C661        C662   1.407       .  A
C661        H666   1.084       .  S
C662       C1711   1.466       .  A
C663       C1710   1.466   1_455  A
C663        C664   1.396       .  A
C664        H665   1.085       .  S
O667       Ni673   1.897       .  S
O667        C688   1.261       .  A
O668       Ni691   1.892       .  S
O668        C677   1.266       .  A
O669       Ni673   1.882       .  S
O669       Ni691   1.879       .  S
O669       Ni685   1.916       .  S
O669        H692   0.966       .  S
C670        O687   1.283       .  A
C670        O679   1.281       .  A
C670        C920   1.470       .  S
O671       Ni690   1.943       .  S
O671        C677   1.275       .  A
O672       Ni690   1.906       .  S
O672        C674   1.270       .  A
Ni673       O676   1.900       .  S
Ni673       O678   1.901       .  S
C674        O684   1.277       .  A
C674        C840   1.479       .  S
O675       Ni691   1.938       .  S
O675        C681   1.284       .  A
O676        C681   1.277       .  A
C677        C893   1.462       .  S
O678        C680   1.263       .  A
O679       Ni690   1.926       .  S
C680        O686   1.271       .  A
C680        C913   1.489       .  S
C681        C860   1.475       .  S
H682        O683   0.966       .  S
O683       Ni691   1.901       .  S
O683       Ni685   1.903       .  S
O683       Ni690   1.886       .  S
O684       Ni685   1.946       .  S
Ni685       O689   1.940       .  S
Ni685       O687   1.925       .  S
O686       Ni691   1.941       .  S
C688        O689   1.277       .  A
C688        C853   1.464       .  S
O693       Ni699   1.940       .  S
O693        C714   1.277       .  A
O694       Ni717   1.936       .  S
O694        C703   1.275       .  A
O695       Ni699   1.891       .  S
O695       Ni717   1.907   1_554  S
O695       Ni711   1.907       .  S
O695        H718   0.966       .  S
C696        O713   1.282       .  A
C696        O705   1.276       .  A
C696        C873   1.475       .  S
O697       Ni716   1.898       .  S
O697        C703   1.262       .  A
O698       Ni716   1.902       .  S
O698        C700   1.264   1_556  A
Ni699       O702   1.921       .  S
Ni699       O704   1.911   1_554  S
C700        O710   1.272       .  A
C700        C823   1.488       .  S
O701       Ni717   1.929   1_554  S
O701        C707   1.282       .  A
O702        C707   1.277       .  A
C703        C883   1.461       .  S
O704        C706   1.272       .  A
O705       Ni716   1.903       .  S
C706        O712   1.276       .  A
C706        C903   1.481       .  S
C707        C833   1.469       .  S
H708        O709   0.966       .  S
O709       Ni717   1.918       .  S
O709       Ni711   1.882   1_556  S
O709       Ni716   1.888       .  S
O710       Ni711   1.937       .  S
Ni711       O715   1.895       .  S
Ni711       O713   1.936   1_554  S
O712       Ni717   1.942       .  S
C714        O715   1.268       .  A
C714        C810   1.476       .  S
O719       Ni727   1.904       .  S
O719        C729   1.267       .  A
O720      Ni1775   1.843   1_455  S
O720        C730   1.240       .  A
O721       Ni727   1.855       .  S
O721        C731   1.249       .  A
O722      Ni1775   1.908   1_455  S
O722        C732   1.266       .  A
O723      Ni1776   1.966   1_455  S
O723        C732   1.287       .  A
O724       Ni728   1.986       .  S
O724        C731   1.295       .  A
O725      Ni1776   1.985   1_455  S
O725        C730   1.297       .  A
O726       Ni728   1.963       .  S
O726        C729   1.291       .  A
Ni727      O1768   1.843       .  S
Ni727      O1770   1.908       .  S
Ni727      Ni728   2.346       .  S
Ni728      O1771   1.966       .  S
Ni728      O1773   1.985       .  S
C729        C773   1.526       .  S
C730        C781   1.488       .  S
C731        C751   1.503       .  S
C732        C789   1.544       .  S
O733       Ni741   1.862       .  S
O733        C743   1.251       .  A
O734       Ni741   1.865       .  S
O734        C744   1.251       .  A
O735       Ni741   1.896       .  S
O735        C745   1.265       .  A
O736       Ni741   1.894       .  S
O736        C746   1.263       .  A
O737       Ni742   1.958       .  S
O737        C746   1.292       .  A
O738       Ni742   1.955       .  S
O738        C745   1.292       .  A
O739       Ni742   1.974       .  S
O739        C744   1.292       .  A
O740       Ni742   1.975       .  S
O740        C743   1.293       .  A
Ni741      Ni742   2.295       .  S
C743        C750   1.516       .  S
C744        C804   1.514       .  S
C745        C772   1.497       .  S
C746        C797   1.498       .  S
C747        C943   1.487       .  S
C747        C752   1.404       .  A
C748        C863   1.473       .  S
C748        C749   1.393       .  A
C749        C750   1.393       .  A
C749        H754   1.085       .  S
C751        C752   1.403       .  A
C752        H753   1.084       .  S
O755       Ni763   1.909       .  S
O755        C765   1.268       .  A
O756        C766   1.241       .  A
O757       Ni763   1.854       .  S
O757        C767   1.249       .  A
O758        C768   1.266       .  A
O759        C768   1.289       .  A
O760       Ni764   1.989       .  S
O760        C767   1.295       .  A
O761        C766   1.296       .  A
O762       Ni764   1.968       .  S
O762        C765   1.291       .  A
Ni763      Ni764   2.345       .  S
C765        C796   1.532       .  S
C766        C788   1.490       .  S
C767        C805   1.503       .  S
C768        C780   1.546       .  S
C769       C1020   1.479       .  S
C769        C774   1.407       .  A
C770        C830   1.483       .  S
C770        C771   1.396       .  A
C771        C772   1.403       .  A
C771        H776   1.085       .  S
C773        C774   1.414       .  A
C774        H775   1.084       .  S
C777        C843   1.494       .  S
C777        C778   1.418       .  A
C777        C782   1.400       .  A
C778        C970   1.485       .  S
C778        C779   1.407       .  A
C779        C780   1.404       .  A
C779        H784   1.084       .  S
C780        C781   1.468       .  A
C781        C782   1.403       .  A
C782        H783   1.085       .  S
C785        C813   1.486       .  S
C785        C786   1.419       .  A
C785        C790   1.407       .  A
C786       C1000   1.495       .  S
C786        C787   1.402       .  A
C787        C788   1.403       .  A
C787        H792   1.085       .  S
C788        C789   1.466       .  A
C789        C790   1.405       .  A
C790        H791   1.084       .  S
C793        C963   1.488       .  S
C793       C1842   1.408       .  A
C793        C798   1.397       .  A
C794        C850   1.484       .  S
C794       C1841   1.408   1_455  A
C794        C795   1.412       .  A
C795        C796   1.417       .  A
C795        H800   1.084       .  S
C796       C1845   1.460   1_455  A
C797       C1844   1.460       .  A
C797        C798   1.401       .  A
C798        H799   1.085       .  S
C801        C820   1.483       .  S
C801       C1850   1.412   1_455  A
C801        C806   1.404       .  A
C802       C1033   1.472       .  S
C802       C1849   1.412       .  A
C802        C803   1.393       .  A
C803        C804   1.393       .  A
C803        H808   1.085       .  S
C804       C1853   1.465       .  A
C805       C1852   1.465   1_455  A
C805        C806   1.403       .  A
C806        H807   1.084       .  S
C809        C810   1.405       .  A
C809        C814   1.398       .  A
C809        H816   1.083       .  S
C810        C811   1.406       .  A
C811        C812   1.397       .  A
C811        F818   1.357       .  S
C812        C813   1.405       .  A
C812        H817   1.083       .  S
C813        C814   1.406       .  A
C814        F815   1.357       .  S
C819        C820   1.404       .  A
C819        C824   1.402       .  A
C819        H826   1.083       .  S
C820        C821   1.403       .  A
C821        C822   1.393       .  A
C821        F828   1.358       .  S
C822        C823   1.409       .  A
C822        H827   1.083       .  S
C823        C824   1.410       .  A
C824        F825   1.357       .  S
C829        C830   1.407       .  A
C829        C834   1.403       .  A
C829        H836   1.083       .  S
C830        C831   1.402       .  A
C831        C832   1.395       .  A
C831        F838   1.358       .  S
C832        C833   1.405       .  A
C832        H837   1.084       .  S
C833        C834   1.403       .  A
C834        F835   1.357       .  S
C839        C840   1.405       .  A
C839        C844   1.396       .  A
C839        H846   1.084       .  S
C840        C841   1.405       .  A
C841        C842   1.407       .  A
C841        F848   1.357       .  S
C842        C843   1.409       .  A
C842        H847   1.083       .  S
C843        C844   1.406       .  A
C844        F845   1.357       .  S
C849        C850   1.405       .  A
C849        C854   1.403       .  A
C849        H856   1.083       .  S
C850        C851   1.405       .  A
C851        C852   1.395       .  A
C851        F858   1.358       .  S
C852        C853   1.404       .  A
C852        H857   1.084       .  S
C853        C854   1.405       .  A
C854        F855   1.357       .  S
C859        C860   1.409       .  A
C859        C864   1.395       .  A
C859        H866   1.083       .  S
C860        C861   1.407       .  A
C861        C862   1.393       .  A
C861        F868   1.358       .  S
C862        C863   1.403       .  A
C862        H867   1.084       .  S
C863        C864   1.400       .  A
C864        F865   1.357       .  S
C869        C870   1.403       .  A
C869        C874   1.395       .  A
C869        H876   1.084       .  S
C870        C871   1.402       .  A
C871        C872   1.395       .  A
C871        F878   1.357       .  S
C872        C873   1.407       .  A
C872        H877   1.083       .  S
C873        C874   1.406       .  A
C874        F875   1.357       .  S
C879        C880   1.403       .  A
C879        C884   1.393       .  A
C879        H886   1.083       .  S
C880        C881   1.405       .  A
C881        C882   1.401       .  A
C881        F888   1.357       .  S
C882        C883   1.404       .  A
C882        H887   1.083       .  S
C883        C884   1.404       .  A
C884        F885   1.358       .  S
C889        C890   1.406       .  A
C889        C894   1.396       .  A
C889        H896   1.083       .  S
C890        C891   1.407       .  A
C891        C892   1.395       .  A
C891        F898   1.358       .  S
C892        C893   1.400       .  A
C892        H897   1.084       .  S
C893        C894   1.401       .  A
C894        F895   1.357       .  S
C899        C900   1.409       .  A
C899        C904   1.406       .  A
C899        H906   1.083       .  S
C900        C901   1.407       .  A
C901        C902   1.397       .  A
C901        F908   1.357       .  S
C902        C903   1.405       .  A
C902        H907   1.084       .  S
C903        C904   1.406       .  A
C904        F905   1.357       .  S
C909        C910   1.407       .  A
C909        C914   1.406       .  A
C909        H916   1.083       .  S
C910        C911   1.403       .  A
C911        C912   1.392       .  A
C911        F918   1.357       .  S
C912        C913   1.408       .  A
C912        H917   1.083       .  S
C913        C914   1.411       .  A
C914        F915   1.357       .  S
C919        C920   1.404       .  A
C919        C924   1.394       .  A
C919        H926   1.083       .  S
C920        C921   1.403       .  A
C921        C922   1.402       .  A
C921        F928   1.357       .  S
C922        C923   1.408       .  A
C922        H927   1.082       .  S
C923        C924   1.404       .  A
C924        F925   1.358       .  S
C929        C930   1.403       .  A
C929        C934   1.401       .  A
C929        H936   1.083       .  S
C930        C931   1.405       .  A
C931        C932   1.395       .  A
C931        F938   1.358       .  S
C932        C933   1.402       .  A
C932        H937   1.084       .  S
C933        C934   1.405       .  A
C934       F1983   1.357       .  S
F935       C1982   1.357       .  S
C939        C940   1.407       .  A
C939        C944   1.403       .  A
C939        H946   1.083       .  S
C940        C941   1.411       .  A
C941        C942   1.389       .  A
C941        F948   1.358       .  S
C942        C943   1.401       .  A
C942        H947   1.082       .  S
C943        C944   1.408       .  A
C944        F945   1.357       .  S
C949        C950   1.408       .  A
C949        C954   1.395       .  A
C949        H956   1.083       .  S
C950        C951   1.407       .  A
C951        C952   1.393       .  A
C951        F958   1.358       .  S
C952        C953   1.403       .  A
C952        H957   1.084       .  S
C953        C954   1.400       .  A
C954        F955   1.357       .  S
C959        C960   1.402       .  A
C959        C964   1.403       .  A
C959        H966   1.083       .  S
C960        C961   1.408       .  A
C961        C962   1.391       .  A
C961        F968   1.357       .  S
C962        C963   1.400       .  A
C962        H967   1.084       .  S
C963        C964   1.411       .  A
C964        F965   1.356       .  S
C969        C970   1.405       .  A
C969        C974   1.397       .  A
C969        H976   1.083       .  S
C970        C971   1.408       .  A
C971        C972   1.395       .  A
C971        F978   1.358       .  S
C972        C973   1.403       .  A
C972        H977   1.083       .  S
C973        C974   1.406       .  A
C974        F975   1.357       .  S
C979        C980   1.402       .  A
C979        C984   1.393       .  A
C979        H986   1.084       .  S
C980        C981   1.407       .  A
C981        C982   1.411       .  A
C981        F988   1.357       .  S
C982        C983   1.413       .  A
C982        H987   1.082       .  S
C983        C984   1.410       .  A
C984        F985   1.358       .  S
C989        C990   1.406       .  A
C989        C994   1.400       .  A
C989        H996   1.083       .  S
C990        C991   1.401       .  A
C991        C992   1.392       .  A
C991        F998   1.358       .  S
C992        C993   1.404       .  A
C992        H997   1.084       .  S
C993        C994   1.402       .  A
C994        F995   1.357       .  S
C999       C1000   1.410       .  A
C999       C1004   1.405       .  A
C999       H1006   1.083       .  S
C1000      C1001   1.407       .  A
C1001      C1002   1.397       .  A
C1001      F1008   1.357       .  S
C1002      C1003   1.405       .  A
C1002      H1007   1.084       .  S
C1003      C1004   1.405       .  A
C1004      F1005   1.357       .  S
C1009      C1010   1.409       .  A
C1009      C1014   1.393       .  A
C1009      H1016   1.083       .  S
C1010      C1011   1.411       .  A
C1011      C1012   1.405       .  A
C1011      F1018   1.357       .  S
C1012      C1013   1.405       .  A
C1012      H1017   1.083       .  S
C1013      C1014   1.401       .  A
C1014      F1015   1.358       .  S
C1019      C1020   1.404       .  A
C1019      C1024   1.402       .  A
C1019      H1026   1.083       .  S
C1020      C1021   1.403       .  A
C1021      C1022   1.394       .  A
C1022      C1023   1.403       .  A
C1022      H1027   1.084       .  S
C1023      C1024   1.405       .  A
C1024      F1025   1.357       .  S
C1029      C1030   1.408       .  A
C1029      C1034   1.394       .  A
C1029      H1036   1.083       .  S
C1030      C1031   1.406       .  A
C1031      C1032   1.394       .  A
C1031      F1038   1.357       .  S
C1032      C1033   1.403       .  A
C1032      H1037   1.084       .  S
C1033      C1034   1.400       .  A
C1034      F2083   1.357       .  S
F1035      C2082   1.357       .  S
C1039      C1040   1.403       .  A
C1039      C1044   1.393       .  A
C1039      H1046   1.083       .  S
C1040      C1041   1.406       .  A
C1041      C1042   1.396       .  A
C1041      F1048   1.357       .  S
C1042      C1043   1.404       .  A
C1042      H1047   1.083       .  S
C1043      C1044   1.406       .  A
C1044      F1045   1.357       .  S
O1049     Ni1055   1.898       .  S
O1049      C1070   1.261       .  A
O1050     Ni1073   1.884       .  S
O1050      C1059   1.266       .  A
O1051     Ni1055   1.884       .  S
O1051     Ni1073   1.876   1_554  S
O1051     Ni1067   1.913       .  S
O1051      H1074   0.966       .  S
C1052      O1069   1.280       .  A
C1052      O1061   1.277       .  A
C1052      C1517   1.463       .  S
O1053     Ni1072   1.939       .  S
O1053      C1059   1.277       .  A
O1054     Ni1072   1.908   1_554  S
O1054      C1056   1.272       .  A
Ni1055     O1058   1.900       .  S
Ni1055     O1060   1.903       .  S
C1056      O1066   1.277       .  A
C1056      C1527   1.478       .  S
O1057     Ni1073   1.937   1_554  S
O1057      C1063   1.283       .  A
O1058      C1063   1.276       .  A
C1059      C1567   1.471       .  S
O1060      C1062   1.263   1_554  A
O1061     Ni1072   1.919       .  S
C1062      O1068   1.270       .  A
C1062      C1534   1.488       .  S
C1063      C1554   1.473       .  S
H1064      O1065   0.966       .  S
O1065     Ni1073   1.903       .  S
O1065     Ni1067   1.907   1_556  S
O1065     Ni1072   1.887       .  S
O1066     Ni1067   1.947       .  S
Ni1067     O1071   1.937       .  S
Ni1067     O1069   1.922   1_554  S
O1068     Ni1073   1.937       .  S
C1070      O1071   1.276       .  A
C1070      C1547   1.463       .  S
O1075     Ni1081   1.943       .  S
O1075      C1096   1.279       .  A
O1076     Ni1099   1.936       .  S
O1076      C1085   1.276       .  A
O1077     Ni1081   1.888       .  S
O1077     Ni1099   1.902       .  S
O1077     Ni1093   1.901       .  S
O1077      H1100   0.968       .  S
C1078      O1095   1.281       .  A
C1078      O1087   1.276       .  A
C1078      C1474   1.474       .  S
O1079     Ni1098   1.901       .  S
O1079      C1085   1.262       .  A
O1080     Ni1098   1.899       .  S
O1080      C1082   1.263       .  A
Ni1081     O1084   1.928       .  S
Ni1081     O1086   1.925       .  S
C1082      O1092   1.270       .  A
C1082      C1464   1.483       .  S
O1083     Ni1099   1.924       .  S
O1083      C1089   1.283       .  A
O1084      C1089   1.280       .  A
C1085      C1454   1.463       .  S
O1086      C1088   1.273       .  A
O1087     Ni1098   1.903       .  S
C1088      O1094   1.275       .  A
C1088      C1504   1.485       .  S
C1089      C1484   1.473       .  S
H1090      O1091   0.967       .  S
O1091     Ni1099   1.917       .  S
O1091     Ni1093   1.880       .  S
O1091     Ni1098   1.885       .  S
O1092     Ni1093   1.934       .  S
Ni1093     O1097   1.888       .  S
Ni1093     O1095   1.935       .  S
O1094     Ni1099   1.937       .  S
C1096      O1097   1.268       .  A
C1096      C1497   1.473       .  S
O1101     Ni1109   1.972       .  S
O1101      C1111   1.292       .  A
O1102     Ni1633   1.985       .  S
O1102      C1112   1.296       .  A
O1103     Ni1109   1.989       .  S
O1103      C1113   1.295       .  A
O1104     Ni1633   1.974       .  S
O1104      C1114   1.289       .  A
O1105     Ni1634   1.912       .  S
O1105      C1114   1.267       .  A
O1106     Ni1110   1.857       .  S
O1106      C1113   1.250       .  A
O1107     Ni1634   1.845       .  S
O1107      C1112   1.240       .  A
O1108     Ni1110   1.909       .  S
O1108      C1111   1.268       .  A
Ni1109     O1626   1.985   1_545  S
Ni1109     O1628   1.974   1_545  S
Ni1109    Ni1110   2.345       .  S
Ni1110     O1629   1.912   1_545  S
Ni1110     O1631   1.845   1_545  S
C1111      C1147   1.535       .  S
C1112      C1162   1.488       .  S
C1113      C1186   1.505       .  S
C1114      C1171   1.549       .  S
O1115     Ni1123   1.979       .  S
O1115      C1125   1.293       .  A
O1116     Ni1123   1.979       .  S
O1116      C1126   1.292       .  A
O1117     Ni1123   1.949       .  S
O1117      C1127   1.291       .  A
O1118     Ni1123   1.952       .  S
O1118      C1128   1.292       .  A
O1119     Ni1124   1.888       .  S
O1119      C1128   1.262       .  A
O1120     Ni1124   1.891       .  S
O1120      C1127   1.263       .  A
O1121     Ni1124   1.871       .  S
O1121      C1126   1.252       .  A
O1122     Ni1124   1.869       .  S
O1122      C1125   1.252       .  A
Ni1123    Ni1124   2.295       .  S
C1125      C1154   1.519       .  S
C1126      C1187   1.520       .  S
C1127      C1178   1.490       .  S
C1128      C1146   1.489       .  S
O1129     Ni1137   1.960       .  S
O1129      C1139   1.290       .  A
O1130      C1140   1.295       .  A
O1131     Ni1137   1.988       .  S
O1131      C1141   1.296       .  A
O1132      C1142   1.289       .  A
O1133      C1142   1.265       .  A
O1134     Ni1138   1.858       .  S
O1134      C1141   1.251       .  A
O1135      C1140   1.242       .  A
O1136     Ni1138   1.907       .  S
O1136      C1139   1.268       .  A
Ni1137    Ni1138   2.347       .  S
C1139      C1179   1.526       .  S
C1140      C1170   1.487       .  S
C1141      C1155   1.504       .  S
C1142      C1163   1.545       .  S
C1143      C1457   1.479       .  S
C1143      C1148   1.412       .  A
C1144      C1447   1.487       .  S
C1144      C1145   1.393       .  A
C1145      C1146   1.400       .  A
C1145      H1150   1.085       .  S
C1147      C1148   1.415       .  A
C1148      H1149   1.084       .  S
C1151      C1434   1.489       .  S
C1151      C1676   1.414       .  A
C1151      C1156   1.405       .  A
C1152      C1477   1.473       .  S
C1152      C1675   1.414   1_545  A
C1152      C1153   1.396       .  A
C1153      C1154   1.395       .  A
C1153      H1158   1.085       .  S
C1154      C1679   1.466   1_545  A
C1155      C1678   1.466       .  A
C1155      C1156   1.406       .  A
C1156      H1157   1.084       .  S
C1159      C1564   1.481       .  S
C1159      C1160   1.417       .  A
C1159      C1164   1.407       .  A
C1160      C1424   1.496       .  S
C1160      C1161   1.400       .  A
C1161      C1162   1.403       .  A
C1161      H1166   1.085       .  S
C1162      C1163   1.468       .  A
C1163      C1164   1.404       .  A
C1164      H1165   1.084       .  S
C1167      C1414   1.481       .  S
C1167      C1168   1.420       .  A
C1167      C1172   1.414       .  A
C1168      C1507   1.506       .  S
C1168      C1169   1.401       .  A
C1169      C1170   1.399       .  A
C1169      H1174   1.084       .  S
C1170      C1171   1.465       .  A
C1171      C1172   1.407       .  A
C1172      H1173   1.084       .  S
C1175      C1404   1.481       .  S
C1175      C1700   1.404       .  A
C1175      C1180   1.407       .  A
C1176      C1514   1.478       .  S
C1176      C1699   1.404   1_545  A
C1176      C1177   1.392       .  A
C1177      C1178   1.399       .  A
C1177      H1182   1.085       .  S
C1178      C1703   1.458   1_545  A
C1179      C1702   1.458       .  A
C1179      C1180   1.414       .  A
C1180      H1181   1.084       .  S
C1183      C1394   1.476       .  S
C1183      C1188   1.397       .  A
C1184      C1537   1.484       .  S
C1184      C1185   1.405       .  A
C1185      C1186   1.407       .  A
C1185      H1190   1.084       .  S
C1187      C1188   1.396       .  A
C1188      H1189   1.085       .  S
O1191     Ni1197   1.897       .  S
O1191      C1212   1.261       .  A
O1192     Ni1215   1.892       .  S
O1192      C1201   1.266       .  A
O1193     Ni1197   1.882       .  S
O1193     Ni1215   1.879       .  S
O1193     Ni1209   1.916       .  S
O1193      H1216   0.966       .  S
C1194      O1211   1.283       .  A
C1194      O1203   1.281       .  A
C1194      C1444   1.470       .  S
O1195     Ni1214   1.943       .  S
O1195      C1201   1.275       .  A
O1196     Ni1214   1.906       .  S
O1196      C1198   1.270       .  A
Ni1197     O1200   1.900       .  S
Ni1197     O1202   1.901       .  S
C1198      O1208   1.277       .  A
C1198      C1364   1.479       .  S
O1199     Ni1215   1.938       .  S
O1199      C1205   1.284       .  A
O1200      C1205   1.277       .  A
C1201      C1417   1.462       .  S
O1202      C1204   1.263       .  A
O1203     Ni1214   1.926       .  S
C1204      O1210   1.271       .  A
C1204      C1437   1.489       .  S
C1205      C1384   1.475       .  S
H1206      O1207   0.966       .  S
O1207     Ni1215   1.901       .  S
O1207     Ni1209   1.903       .  S
O1207     Ni1214   1.886       .  S
O1208     Ni1209   1.946       .  S
Ni1209     O1213   1.940       .  S
Ni1209     O1211   1.925       .  S
O1210     Ni1215   1.941       .  S
C1212      O1213   1.277       .  A
C1212      C1377   1.464       .  S
O1217     Ni1223   1.940       .  S
O1217      C1238   1.277       .  A
O1218     Ni1241   1.936       .  S
O1218      C1227   1.275       .  A
O1219     Ni1223   1.891       .  S
O1219     Ni1241   1.907   1_554  S
O1219     Ni1235   1.907       .  S
O1219      H1242   0.966       .  S
C1220      O1237   1.282       .  A
C1220      O1229   1.276       .  A
C1220      C1397   1.475       .  S
O1221     Ni1240   1.898       .  S
O1221      C1227   1.262       .  A
O1222     Ni1240   1.902       .  S
O1222      C1224   1.264   1_556  A
Ni1223     O1226   1.921       .  S
Ni1223     O1228   1.911   1_554  S
C1224      O1234   1.272       .  A
C1224      C1347   1.488       .  S
O1225     Ni1241   1.929   1_554  S
O1225      C1231   1.282       .  A
O1226      C1231   1.277       .  A
C1227      C1407   1.461       .  S
O1228      C1230   1.272       .  A
O1229     Ni1240   1.903       .  S
C1230      O1236   1.276       .  A
C1230      C1427   1.481       .  S
C1231      C1357   1.469       .  S
H1232      O1233   0.966       .  S
O1233     Ni1241   1.918       .  S
O1233     Ni1235   1.882   1_556  S
O1233     Ni1240   1.888       .  S
O1234     Ni1235   1.937       .  S
Ni1235     O1239   1.895       .  S
Ni1235     O1237   1.936   1_554  S
O1236     Ni1241   1.942       .  S
C1238      O1239   1.268       .  A
C1238      C1334   1.476       .  S
O1243     Ni1251   1.904       .  S
O1243      C1253   1.267       .  A
O1244      C1254   1.240       .  A
O1245     Ni1251   1.855       .  S
O1245      C1255   1.249       .  A
O1246      C1256   1.266       .  A
O1247      C1256   1.287       .  A
O1248     Ni1252   1.986       .  S
O1248      C1255   1.295       .  A
O1249      C1254   1.297       .  A
O1250     Ni1252   1.963       .  S
O1250      C1253   1.291       .  A
Ni1251    Ni1252   2.346       .  S
C1253      C1297   1.526       .  S
C1254      C1305   1.488       .  S
C1255      C1275   1.503       .  S
C1256      C1313   1.544       .  S
O1257     Ni1265   1.862       .  S
O1257      C1267   1.251       .  A
O1258     Ni1265   1.865       .  S
O1258      C1268   1.251       .  A
O1259     Ni1265   1.896       .  S
O1259      C1269   1.265       .  A
O1260     Ni1265   1.894       .  S
O1260      C1270   1.263       .  A
O1261     Ni1266   1.958       .  S
O1261      C1270   1.292       .  A
O1262     Ni1266   1.955       .  S
O1262      C1269   1.292       .  A
O1263     Ni1266   1.974       .  S
O1263      C1268   1.292       .  A
O1264     Ni1266   1.975       .  S
O1264      C1267   1.293       .  A
Ni1265    Ni1266   2.295       .  S
C1267      C1274   1.516       .  S
C1268      C1328   1.514       .  S
C1269      C1296   1.497       .  S
C1270      C1321   1.498       .  S
C1271      C1467   1.487       .  S
C1271      C1796   1.415   1_545  A
C1271      C1276   1.404       .  A
C1272      C1387   1.473       .  S
C1272      C1795   1.415       .  A
C1272      C1273   1.393       .  A
C1273      C1274   1.393       .  A
C1273      H1278   1.085       .  S
C1274      C1799   1.465       .  A
C1275      C1798   1.465   1_545  A
C1275      C1276   1.403       .  A
C1276      H1277   1.084       .  S
O1279     Ni1287   1.909       .  S
O1279      C1289   1.268       .  A
O1280     Ni1811   1.846   1_545  S
O1280      C1290   1.241       .  A
O1281     Ni1287   1.854       .  S
O1281      C1291   1.249       .  A
O1282     Ni1811   1.908   1_545  S
O1282      C1292   1.266       .  A
O1283     Ni1812   1.970   1_545  S
O1283      C1292   1.289       .  A
O1284     Ni1288   1.989       .  S
O1284      C1291   1.295       .  A
O1285     Ni1812   1.985   1_545  S
O1285      C1290   1.296       .  A
O1286     Ni1288   1.968       .  S
O1286      C1289   1.291       .  A
Ni1287     O1804   1.846       .  S
Ni1287     O1806   1.908       .  S
Ni1287    Ni1288   2.345       .  S
Ni1288     O1807   1.970       .  S
Ni1288     O1809   1.985       .  S
C1289      C1320   1.532       .  S
C1290      C1312   1.490       .  S
C1291      C1329   1.503       .  S
C1292      C1304   1.546       .  S
C1293      C1544   1.479       .  S
C1293      C1818   1.404   1_545  A
C1293      C1298   1.407       .  A
C1294      C1354   1.483       .  S
C1294      C1817   1.404       .  A
C1294      C1295   1.396       .  A
C1295      C1296   1.403       .  A
C1295      H1300   1.085       .  S
C1296      C1821   1.460       .  A
C1297      C1820   1.460   1_545  A
C1297      C1298   1.414       .  A
C1298      H1299   1.084       .  S
C1301      C1367   1.494       .  S
C1301      C1302   1.418       .  A
C1301      C1306   1.400       .  A
C1302      C1494   1.485       .  S
C1302      C1303   1.407       .  A
C1303      C1304   1.404       .  A
C1303      H1308   1.084       .  S
C1304      C1305   1.468       .  A
C1305      C1306   1.403       .  A
C1306      H1307   1.085       .  S
C1309      C1337   1.486       .  S
C1309      C1310   1.419       .  A
C1309      C1314   1.407       .  A
C1310      C1524   1.495       .  S
C1310      C1311   1.402       .  A
C1311      C1312   1.403       .  A
C1311      H1316   1.085       .  S
C1312      C1313   1.466       .  A
C1313      C1314   1.405       .  A
C1314      H1315   1.084       .  S
C1317      C1487   1.488       .  S
C1317      C1322   1.397       .  A
C1318      C1374   1.484       .  S
C1318      C1319   1.412       .  A
C1319      C1320   1.417       .  A
C1319      H1324   1.084       .  S
C1321      C1322   1.401       .  A
C1322      H1323   1.085       .  S
C1325      C1344   1.483       .  S
C1325      C1330   1.404       .  A
C1326      C1557   1.472       .  S
C1326      C1327   1.393       .  A
C1327      C1328   1.393       .  A
C1327      H1332   1.085       .  S
C1329      C1330   1.403       .  A
C1330      H1331   1.084       .  S
C1333      C1334   1.405       .  A
C1333      C1338   1.398       .  A
C1333      H1340   1.083       .  S
C1334      C1335   1.406       .  A
C1335      C1336   1.397       .  A
C1335      F1342   1.357       .  S
C1336      C1337   1.405       .  A
C1336      H1341   1.083       .  S
C1337      C1338   1.406       .  A
C1338      F1339   1.357       .  S
C1343      C1344   1.404       .  A
C1343      C1348   1.402       .  A
C1343      H1350   1.083       .  S
C1344      C1345   1.403       .  A
C1345      C1346   1.393       .  A
C1345      F1352   1.358       .  S
C1346      C1347   1.409       .  A
C1346      H1351   1.083       .  S
C1347      C1348   1.410       .  A
C1348      F1349   1.357       .  S
C1353      C1354   1.407       .  A
C1353      C1358   1.403       .  A
C1353      H1360   1.083       .  S
C1354      C1355   1.402       .  A
C1355      C1356   1.395       .  A
C1355      F1362   1.358       .  S
C1356      C1357   1.405       .  A
C1356      H1361   1.084       .  S
C1357      C1358   1.403       .  A
C1358      F1359   1.357       .  S
C1363      C1364   1.405       .  A
C1363      C1368   1.396       .  A
C1363      H1370   1.084       .  S
C1364      C1365   1.405       .  A
C1365      C1366   1.407       .  A
C1365      F1372   1.357       .  S
C1366      C1367   1.409       .  A
C1366      H1371   1.083       .  S
C1367      C1368   1.406       .  A
C1368      F1369   1.357       .  S
C1373      C1374   1.405       .  A
C1373      C1378   1.403       .  A
C1373      H1380   1.083       .  S
C1374      C1375   1.405       .  A
C1375      C1376   1.395       .  A
C1375      F1382   1.358       .  S
C1376      C1377   1.404       .  A
C1376      H1381   1.084       .  S
C1377      C1378   1.405       .  A
C1378      F1379   1.357       .  S
C1383      C1384   1.409       .  A
C1383      C1388   1.395       .  A
C1383      H1390   1.083       .  S
C1384      C1385   1.407       .  A
C1385      C1386   1.393       .  A
C1385      F1392   1.358       .  S
C1386      C1387   1.403       .  A
C1386      H1391   1.084       .  S
C1387      C1388   1.400       .  A
C1388      F1389   1.357       .  S
C1393      C1394   1.403       .  A
C1393      C1398   1.395       .  A
C1393      H1400   1.084       .  S
C1394      C1395   1.402       .  A
C1395      C1396   1.395       .  A
C1395      F1402   1.357       .  S
C1396      C1397   1.407       .  A
C1396      H1401   1.083       .  S
C1397      C1398   1.406       .  A
C1398      F1399   1.357       .  S
C1403      C1404   1.403       .  A
C1403      C1408   1.393       .  A
C1403      H1410   1.083       .  S
C1404      C1405   1.405       .  A
C1405      C1406   1.401       .  A
C1405      F1412   1.357       .  S
C1406      C1407   1.404       .  A
C1406      H1411   1.083       .  S
C1407      C1408   1.404       .  A
C1408      F1409   1.358       .  S
C1413      C1414   1.406       .  A
C1413      C1418   1.396       .  A
C1413      H1420   1.083       .  S
C1414      C1415   1.407       .  A
C1415      C1416   1.395       .  A
C1415      F1422   1.358       .  S
C1416      C1417   1.400       .  A
C1416      H1421   1.084       .  S
C1417      C1418   1.401       .  A
C1418      F1419   1.357       .  S
C1423      C1424   1.409       .  A
C1423      C1428   1.406       .  A
C1423      H1430   1.083       .  S
C1424      C1425   1.407       .  A
C1425      C1426   1.397       .  A
C1425      F1432   1.357       .  S
C1426      C1427   1.405       .  A
C1426      H1431   1.084       .  S
C1427      C1428   1.406       .  A
C1428      F1429   1.357       .  S
C1433      C1434   1.407       .  A
C1433      C1438   1.406       .  A
C1433      H1440   1.083       .  S
C1434      C1435   1.403       .  A
C1435      C1436   1.392       .  A
C1435      F1442   1.357       .  S
C1436      C1437   1.408       .  A
C1436      H1441   1.083       .  S
C1437      C1438   1.411       .  A
C1438      F1439   1.357       .  S
C1443      C1444   1.404       .  A
C1443      C1448   1.394       .  A
C1443      H1450   1.083       .  S
C1444      C1445   1.403       .  A
C1445      C1446   1.402       .  A
C1445      F1452   1.357       .  S
C1446      C1447   1.408       .  A
C1446      H1451   1.082       .  S
C1447      C1448   1.404       .  A
C1448      F1449   1.358       .  S
C1453      C1454   1.403       .  A
C1453      C1458   1.401       .  A
C1453      H1460   1.083       .  S
C1454      C1455   1.405       .  A
C1455      C1456   1.395       .  A
C1455      F1462   1.358       .  S
C1456      C1457   1.402       .  A
C1456      H1461   1.084       .  S
C1457      C1458   1.405       .  A
C1463      C1464   1.407       .  A
C1463      C1468   1.403       .  A
C1463      H1470   1.083       .  S
C1464      C1465   1.411       .  A
C1465      C1466   1.389       .  A
C1465      F1472   1.358       .  S
C1466      C1467   1.401       .  A
C1466      H1471   1.082       .  S
C1467      C1468   1.408       .  A
C1468      F1469   1.357       .  S
C1473      C1474   1.408       .  A
C1473      C1478   1.395       .  A
C1473      H1480   1.083       .  S
C1474      C1475   1.407       .  A
C1475      C1476   1.393       .  A
C1475      F1482   1.358       .  S
C1476      C1477   1.403       .  A
C1476      H1481   1.084       .  S
C1477      C1478   1.400       .  A
C1478      F1479   1.357       .  S
C1483      C1484   1.402       .  A
C1483      C1488   1.403       .  A
C1483      H1490   1.083       .  S
C1484      C1485   1.408       .  A
C1485      C1486   1.391       .  A
C1485      F1492   1.357       .  S
C1486      C1487   1.400       .  A
C1486      H1491   1.084       .  S
C1487      C1488   1.411       .  A
C1488      F1489   1.356       .  S
C1493      C1494   1.405       .  A
C1493      C1498   1.397       .  A
C1493      H1500   1.083       .  S
C1494      C1495   1.408       .  A
C1495      C1496   1.395       .  A
C1495      F1502   1.358       .  S
C1496      C1497   1.403       .  A
C1496      H1501   1.083       .  S
C1497      C1498   1.406       .  A
C1498      F1499   1.357       .  S
C1503      C1504   1.402       .  A
C1503      C1508   1.393       .  A
C1503      H1510   1.084       .  S
C1504      C1505   1.407       .  A
C1505      C1506   1.411       .  A
C1505      F1512   1.357       .  S
C1506      C1507   1.413       .  A
C1506      H1511   1.082       .  S
C1507      C1508   1.410       .  A
C1508      F1509   1.358       .  S
C1513      C1514   1.406       .  A
C1513      C1518   1.400       .  A
C1513      H1520   1.083       .  S
C1514      C1515   1.401       .  A
C1515      C1516   1.392       .  A
C1515      F1522   1.358       .  S
C1516      C1517   1.404       .  A
C1516      H1521   1.084       .  S
C1517      C1518   1.402       .  A
C1518      F1519   1.357       .  S
C1523      C1524   1.410       .  A
C1523      C1528   1.405       .  A
C1523      H1530   1.083       .  S
C1524      C1525   1.407       .  A
C1525      C1526   1.397       .  A
C1525      F1532   1.357       .  S
C1526      C1527   1.405       .  A
C1526      H1531   1.084       .  S
C1527      C1528   1.405       .  A
C1528      F1529   1.357       .  S
C1533      C1534   1.409       .  A
C1533      C1538   1.393       .  A
C1533      H1540   1.083       .  S
C1534      C1535   1.411       .  A
C1535      C1536   1.405       .  A
C1535      F1542   1.357       .  S
C1536      C1537   1.405       .  A
C1536      H1541   1.083       .  S
C1537      C1538   1.401       .  A
C1538      F1539   1.358       .  S
C1543      C1544   1.404       .  A
C1543      C1548   1.402       .  A
C1543      H1550   1.083       .  S
C1544      C1545   1.403       .  A
C1545      C1546   1.394       .  A
C1545      F2076   1.358       .  S
C1546      C1547   1.403       .  A
C1546      H1551   1.084       .  S
C1547      C1548   1.405       .  A
C1548      F1549   1.357       .  S
F1552      C2069   1.358       .  S
C1553      C1554   1.408       .  A
C1553      C1558   1.394       .  A
C1553      H1560   1.083       .  S
C1554      C1555   1.406       .  A
C1555      C1556   1.394       .  A
C1555      F1562   1.357       .  S
C1556      C1557   1.403       .  A
C1556      H1561   1.084       .  S
C1557      C1558   1.400       .  A
C1563      C1564   1.403       .  A
C1563      C1568   1.393       .  A
C1563      H1570   1.083       .  S
C1564      C1565   1.406       .  A
C1565      C1566   1.396       .  A
C1565      F1572   1.357       .  S
C1566      C1567   1.404       .  A
C1566      H1571   1.083       .  S
C1567      C1568   1.406       .  A
C1568      F1569   1.357       .  S
O1573     Ni1579   1.898       .  S
O1573      C1594   1.261       .  A
O1574     Ni1597   1.884       .  S
O1574      C1583   1.266       .  A
O1575     Ni1579   1.884       .  S
O1575     Ni1597   1.876   1_554  S
O1575     Ni1591   1.913       .  S
O1575      H1598   0.966       .  S
C1576      O1593   1.280       .  A
C1576      O1585   1.277       .  A
C1576      C2041   1.463       .  S
O1577     Ni1596   1.939       .  S
O1577      C1583   1.277       .  A
O1578     Ni1596   1.908   1_554  S
O1578      C1580   1.272       .  A
Ni1579     O1582   1.900       .  S
Ni1579     O1584   1.903       .  S
C1580      O1590   1.277       .  A
C1580      C2051   1.478       .  S
O1581     Ni1597   1.937   1_554  S
O1581      C1587   1.283       .  A
O1582      C1587   1.276       .  A
C1583      C2091   1.471       .  S
O1584      C1586   1.263   1_554  A
O1585     Ni1596   1.919       .  S
C1586      O1592   1.270       .  A
C1586      C2058   1.488       .  S
C1587      C2078   1.473       .  S
H1588      O1589   0.966       .  S
O1589     Ni1597   1.903       .  S
O1589     Ni1591   1.907   1_556  S
O1589     Ni1596   1.887       .  S
O1590     Ni1591   1.947       .  S
Ni1591     O1595   1.937       .  S
Ni1591     O1593   1.922   1_554  S
O1592     Ni1597   1.937       .  S
C1594      O1595   1.276       .  A
C1594      C2071   1.463       .  S
O1599     Ni1605   1.943       .  S
O1599      C1620   1.279       .  A
O1600     Ni1623   1.936       .  S
O1600      C1609   1.276       .  A
O1601     Ni1605   1.888       .  S
O1601     Ni1623   1.902       .  S
O1601     Ni1617   1.901       .  S
O1601      H1624   0.968       .  S
C1602      O1619   1.281       .  A
C1602      O1611   1.276       .  A
C1602      C1998   1.474       .  S
O1603     Ni1622   1.901       .  S
O1603      C1609   1.262       .  A
O1604     Ni1622   1.899       .  S
O1604      C1606   1.263       .  A
Ni1605     O1608   1.928       .  S
Ni1605     O1610   1.925       .  S
C1606      O1616   1.270       .  A
C1606      C1988   1.483       .  S
O1607     Ni1623   1.924       .  S
O1607      C1613   1.283       .  A
O1608      C1613   1.280       .  A
C1609      C1978   1.463       .  S
O1610      C1612   1.273       .  A
O1611     Ni1622   1.903       .  S
C1612      O1618   1.275       .  A
C1612      C2028   1.485       .  S
C1613      C2008   1.473       .  S
H1614      O1615   0.967       .  S
O1615     Ni1623   1.917       .  S
O1615     Ni1617   1.880       .  S
O1615     Ni1622   1.885       .  S
O1616     Ni1617   1.934       .  S
Ni1617     O1621   1.888       .  S
Ni1617     O1619   1.935       .  S
O1618     Ni1623   1.937       .  S
C1620      O1621   1.268       .  A
C1620      C2021   1.473       .  S
O1625     Ni1633   1.972       .  S
O1625      C1635   1.292       .  A
O1626      C1636   1.296       .  A
O1627     Ni1633   1.989       .  S
O1627      C1637   1.295       .  A
O1628      C1638   1.289       .  A
O1629      C1638   1.267       .  A
O1630     Ni1634   1.857       .  S
O1630      C1637   1.250       .  A
O1631      C1636   1.240       .  A
O1632     Ni1634   1.909       .  S
O1632      C1635   1.268       .  A
Ni1633    Ni1634   2.345       .  S
C1635      C1671   1.535       .  S
C1636      C1686   1.488       .  S
C1637      C1710   1.505       .  S
C1638      C1695   1.549       .  S
O1639     Ni1647   1.979       .  S
O1639      C1649   1.293       .  A
O1640     Ni1647   1.979       .  S
O1640      C1650   1.292       .  A
O1641     Ni1647   1.949       .  S
O1641      C1651   1.291       .  A
O1642     Ni1647   1.952       .  S
O1642      C1652   1.292       .  A
O1643     Ni1648   1.888       .  S
O1643      C1652   1.262       .  A
O1644     Ni1648   1.891       .  S
O1644      C1651   1.263       .  A
O1645     Ni1648   1.871       .  S
O1645      C1650   1.252       .  A
O1646     Ni1648   1.869       .  S
O1646      C1649   1.252       .  A
Ni1647    Ni1648   2.295       .  S
C1649      C1678   1.519       .  S
C1650      C1711   1.520       .  S
C1651      C1702   1.490       .  S
C1652      C1670   1.489       .  S
O1653     Ni1661   1.960       .  S
O1653      C1663   1.290       .  A
O1654      C1664   1.295       .  A
O1655     Ni1661   1.988       .  S
O1655      C1665   1.296       .  A
O1656      C1666   1.289       .  A
O1657      C1666   1.265       .  A
O1658     Ni1662   1.858       .  S
O1658      C1665   1.251       .  A
O1659      C1664   1.242       .  A
O1660     Ni1662   1.907       .  S
O1660      C1663   1.268       .  A
Ni1661    Ni1662   2.347       .  S
C1663      C1703   1.526       .  S
C1664      C1694   1.487       .  S
C1665      C1679   1.504       .  S
C1666      C1687   1.545       .  S
C1667      C1981   1.479       .  S
C1667      C1672   1.412       .  A
C1668      C1971   1.487       .  S
C1668      C1669   1.393       .  A
C1669      C1670   1.400       .  A
C1669      H1674   1.085       .  S
C1671      C1672   1.415       .  A
C1672      H1673   1.084       .  S
C1675      C1958   1.489       .  S
C1675      C1680   1.405       .  A
C1676      C2001   1.473       .  S
C1676      C1677   1.396       .  A
C1677      C1678   1.395       .  A
C1677      H1682   1.085       .  S
C1679      C1680   1.406       .  A
C1680      H1681   1.084       .  S
C1683      C2088   1.481       .  S
C1683      C1684   1.417       .  A
C1683      C1688   1.407       .  A
C1684      C1948   1.496       .  S
C1684      C1685   1.400       .  A
C1685      C1686   1.403       .  A
C1685      H1690   1.085       .  S
C1686      C1687   1.468       .  A
C1687      C1688   1.404       .  A
C1688      H1689   1.084       .  S
C1691      C1938   1.481       .  S
C1691      C1692   1.420       .  A
C1691      C1696   1.414       .  A
C1692      C2031   1.506       .  S
C1692      C1693   1.401       .  A
C1693      C1694   1.399       .  A
C1693      H1698   1.084       .  S
C1694      C1695   1.465       .  A
C1695      C1696   1.407       .  A
C1696      H1697   1.084       .  S
C1699      C1928   1.481       .  S
C1699      C1704   1.407       .  A
C1700      C2038   1.478       .  S
C1700      C1701   1.392       .  A
C1701      C1702   1.399       .  A
C1701      H1706   1.085       .  S
C1703      C1704   1.414       .  A
C1704      H1705   1.084       .  S
C1707      C1918   1.476       .  S
C1707      C1712   1.397       .  A
C1708      C2061   1.484       .  S
C1708      C1709   1.405       .  A
C1709      C1710   1.407       .  A
C1709      H1714   1.084       .  S
C1711      C1712   1.396       .  A
C1712      H1713   1.085       .  S
O1715     Ni1721   1.897       .  S
O1715      C1736   1.261       .  A
O1716     Ni1739   1.892       .  S
O1716      C1725   1.266       .  A
O1717     Ni1721   1.882       .  S
O1717     Ni1739   1.879       .  S
O1717     Ni1733   1.916       .  S
O1717      H1740   0.966       .  S
C1718      O1735   1.283       .  A
C1718      O1727   1.281       .  A
C1718      C1968   1.470       .  S
O1719     Ni1738   1.943       .  S
O1719      C1725   1.275       .  A
O1720     Ni1738   1.906       .  S
O1720      C1722   1.270       .  A
Ni1721     O1724   1.900       .  S
Ni1721     O1726   1.901       .  S
C1722      O1732   1.277       .  A
C1722      C1888   1.479       .  S
O1723     Ni1739   1.938       .  S
O1723      C1729   1.284       .  A
O1724      C1729   1.277       .  A
C1725      C1941   1.462       .  S
O1726      C1728   1.263       .  A
O1727     Ni1738   1.926       .  S
C1728      O1734   1.271       .  A
C1728      C1961   1.489       .  S
C1729      C1908   1.475       .  S
H1730      O1731   0.966       .  S
O1731     Ni1739   1.901       .  S
O1731     Ni1733   1.903       .  S
O1731     Ni1738   1.886       .  S
O1732     Ni1733   1.946       .  S
Ni1733     O1737   1.940       .  S
Ni1733     O1735   1.925       .  S
O1734     Ni1739   1.941       .  S
C1736      O1737   1.277       .  A
C1736      C1901   1.464       .  S
O1741     Ni1747   1.940       .  S
O1741      C1762   1.277       .  A
O1742     Ni1765   1.936       .  S
O1742      C1751   1.275       .  A
O1743     Ni1747   1.891       .  S
O1743     Ni1765   1.907   1_554  S
O1743     Ni1759   1.907       .  S
O1743      H1766   0.966       .  S
C1744      O1761   1.282       .  A
C1744      O1753   1.276       .  A
C1744      C1921   1.475       .  S
O1745     Ni1764   1.898       .  S
O1745      C1751   1.262       .  A
O1746     Ni1764   1.902       .  S
O1746      C1748   1.264   1_556  A
Ni1747     O1750   1.921       .  S
Ni1747     O1752   1.911   1_554  S
C1748      O1758   1.272       .  A
C1748      C1871   1.488       .  S
O1749     Ni1765   1.929   1_554  S
O1749      C1755   1.282       .  A
O1750      C1755   1.277       .  A
C1751      C1931   1.461       .  S
O1752      C1754   1.272       .  A
O1753     Ni1764   1.903       .  S
C1754      O1760   1.276       .  A
C1754      C1951   1.481       .  S
C1755      C1881   1.469       .  S
H1756      O1757   0.966       .  S
O1757     Ni1765   1.918       .  S
O1757     Ni1759   1.882   1_556  S
O1757     Ni1764   1.888       .  S
O1758     Ni1759   1.937       .  S
Ni1759     O1763   1.895       .  S
Ni1759     O1761   1.936   1_554  S
O1760     Ni1765   1.942       .  S
C1762      O1763   1.268       .  A
C1762      C1858   1.476       .  S
O1767     Ni1775   1.904       .  S
O1767      C1777   1.267       .  A
O1768      C1778   1.240       .  A
O1769     Ni1775   1.855       .  S
O1769      C1779   1.249       .  A
O1770      C1780   1.266       .  A
O1771      C1780   1.287       .  A
O1772     Ni1776   1.986       .  S
O1772      C1779   1.295       .  A
O1773      C1778   1.297       .  A
O1774     Ni1776   1.963       .  S
O1774      C1777   1.291       .  A
Ni1775    Ni1776   2.346       .  S
C1777      C1821   1.526       .  S
C1778      C1829   1.488       .  S
C1779      C1799   1.503       .  S
C1780      C1837   1.544       .  S
O1781     Ni1789   1.862       .  S
O1781      C1791   1.251       .  A
O1782     Ni1789   1.865       .  S
O1782      C1792   1.251       .  A
O1783     Ni1789   1.896       .  S
O1783      C1793   1.265       .  A
O1784     Ni1789   1.894       .  S
O1784      C1794   1.263       .  A
O1785     Ni1790   1.958       .  S
O1785      C1794   1.292       .  A
O1786     Ni1790   1.955       .  S
O1786      C1793   1.292       .  A
O1787     Ni1790   1.974       .  S
O1787      C1792   1.292       .  A
O1788     Ni1790   1.975       .  S
O1788      C1791   1.293       .  A
Ni1789    Ni1790   2.295       .  S
C1791      C1798   1.516       .  S
C1792      C1852   1.514       .  S
C1793      C1820   1.497       .  S
C1794      C1845   1.498       .  S
C1795      C1991   1.487       .  S
C1795      C1800   1.404       .  A
C1796      C1911   1.473       .  S
C1796      C1797   1.393       .  A
C1797      C1798   1.393       .  A
C1797      H1802   1.085       .  S
C1799      C1800   1.403       .  A
C1800      H1801   1.084       .  S
O1803     Ni1811   1.909       .  S
O1803      C1813   1.268       .  A
O1804      C1814   1.241       .  A
O1805     Ni1811   1.854       .  S
O1805      C1815   1.249       .  A
O1806      C1816   1.266       .  A
O1807      C1816   1.289       .  A
O1808     Ni1812   1.989       .  S
O1808      C1815   1.295       .  A
O1809      C1814   1.296       .  A
O1810     Ni1812   1.968       .  S
O1810      C1813   1.291       .  A
Ni1811    Ni1812   2.345       .  S
C1813      C1844   1.532       .  S
C1814      C1836   1.490       .  S
C1815      C1853   1.503       .  S
C1816      C1828   1.546       .  S
C1817      C2068   1.479       .  S
C1817      C1822   1.407       .  A
C1818      C1878   1.483       .  S
C1818      C1819   1.396       .  A
C1819      C1820   1.403       .  A
C1819      H1824   1.085       .  S
C1821      C1822   1.414       .  A
C1822      H1823   1.084       .  S
C1825      C1891   1.494       .  S
C1825      C1826   1.418       .  A
C1825      C1830   1.400       .  A
C1826      C2018   1.485       .  S
C1826      C1827   1.407       .  A
C1827      C1828   1.404       .  A
C1827      H1832   1.084       .  S
C1828      C1829   1.468       .  A
C1829      C1830   1.403       .  A
C1830      H1831   1.085       .  S
C1833      C1861   1.486       .  S
C1833      C1834   1.419       .  A
C1833      C1838   1.407       .  A
C1834      C2048   1.495       .  S
C1834      C1835   1.402       .  A
C1835      C1836   1.403       .  A
C1835      H1840   1.085       .  S
C1836      C1837   1.466       .  A
C1837      C1838   1.405       .  A
C1838      H1839   1.084       .  S
C1841      C2011   1.488       .  S
C1841      C1846   1.397       .  A
C1842      C1898   1.484       .  S
C1842      C1843   1.412       .  A
C1843      C1844   1.417       .  A
C1843      H1848   1.084       .  S
C1845      C1846   1.401       .  A
C1846      H1847   1.085       .  S
C1849      C1868   1.483       .  S
C1849      C1854   1.404       .  A
C1850      C2081   1.472       .  S
C1850      C1851   1.393       .  A
C1851      C1852   1.393       .  A
C1851      H1856   1.085       .  S
C1853      C1854   1.403       .  A
C1854      H1855   1.084       .  S
C1857      C1858   1.405       .  A
C1857      C1862   1.398       .  A
C1857      H1864   1.083       .  S
C1858      C1859   1.406       .  A
C1859      C1860   1.397       .  A
C1859      F1866   1.357       .  S
C1860      C1861   1.405       .  A
C1860      H1865   1.083       .  S
C1861      C1862   1.406       .  A
C1862      F1863   1.357       .  S
C1867      C1868   1.404       .  A
C1867      C1872   1.402       .  A
C1867      H1874   1.083       .  S
C1868      C1869   1.403       .  A
C1869      C1870   1.393       .  A
C1869      F1876   1.358       .  S
C1870      C1871   1.409       .  A
C1870      H1875   1.083       .  S
C1871      C1872   1.410       .  A
C1872      F1873   1.357       .  S
C1877      C1878   1.407       .  A
C1877      C1882   1.403       .  A
C1877      H1884   1.083       .  S
C1878      C1879   1.402       .  A
C1879      C1880   1.395       .  A
C1879      F1886   1.358       .  S
C1880      C1881   1.405       .  A
C1880      H1885   1.084       .  S
C1881      C1882   1.403       .  A
C1882      F1883   1.357       .  S
C1887      C1888   1.405       .  A
C1887      C1892   1.396       .  A
C1887      H1894   1.084       .  S
C1888      C1889   1.405       .  A
C1889      C1890   1.407       .  A
C1889      F1896   1.357       .  S
C1890      C1891   1.409       .  A
C1890      H1895   1.083       .  S
C1891      C1892   1.406       .  A
C1892      F1893   1.357       .  S
C1897      C1898   1.405       .  A
C1897      C1902   1.403       .  A
C1897      H1904   1.083       .  S
C1898      C1899   1.405       .  A
C1899      C1900   1.395       .  A
C1899      F1906   1.358       .  S
C1900      C1901   1.404       .  A
C1900      H1905   1.084       .  S
C1901      C1902   1.405       .  A
C1902      F1903   1.357       .  S
C1907      C1908   1.409       .  A
C1907      C1912   1.395       .  A
C1907      H1914   1.083       .  S
C1908      C1909   1.407       .  A
C1909      C1910   1.393       .  A
C1909      F1916   1.358       .  S
C1910      C1911   1.403       .  A
C1910      H1915   1.084       .  S
C1911      C1912   1.400       .  A
C1912      F1913   1.357       .  S
C1917      C1918   1.403       .  A
C1917      C1922   1.395       .  A
C1917      H1924   1.084       .  S
C1918      C1919   1.402       .  A
C1919      C1920   1.395       .  A
C1919      F1926   1.357       .  S
C1920      C1921   1.407       .  A
C1920      H1925   1.083       .  S
C1921      C1922   1.406       .  A
C1922      F1923   1.357       .  S
C1927      C1928   1.403       .  A
C1927      C1932   1.393       .  A
C1927      H1934   1.083       .  S
C1928      C1929   1.405       .  A
C1929      C1930   1.401       .  A
C1929      F1936   1.357       .  S
C1930      C1931   1.404       .  A
C1930      H1935   1.083       .  S
C1931      C1932   1.404       .  A
C1932      F1933   1.358       .  S
C1937      C1938   1.406       .  A
C1937      C1942   1.396       .  A
C1937      H1944   1.083       .  S
C1938      C1939   1.407       .  A
C1939      C1940   1.395       .  A
C1939      F1946   1.358       .  S
C1940      C1941   1.400       .  A
C1940      H1945   1.084       .  S
C1941      C1942   1.401       .  A
C1942      F1943   1.357       .  S
C1947      C1948   1.409       .  A
C1947      C1952   1.406       .  A
C1947      H1954   1.083       .  S
C1948      C1949   1.407       .  A
C1949      C1950   1.397       .  A
C1949      F1956   1.357       .  S
C1950      C1951   1.405       .  A
C1950      H1955   1.084       .  S
C1951      C1952   1.406       .  A
C1952      F1953   1.357       .  S
C1957      C1958   1.407       .  A
C1957      C1962   1.406       .  A
C1957      H1964   1.083       .  S
C1958      C1959   1.403       .  A
C1959      C1960   1.392       .  A
C1959      F1966   1.357       .  S
C1960      C1961   1.408       .  A
C1960      H1965   1.083       .  S
C1961      C1962   1.411       .  A
C1962      F1963   1.357       .  S
C1967      C1968   1.404       .  A
C1967      C1972   1.394       .  A
C1967      H1974   1.083       .  S
C1968      C1969   1.403       .  A
C1969      C1970   1.402       .  A
C1969      F1976   1.357       .  S
C1970      C1971   1.408       .  A
C1970      H1975   1.082       .  S
C1971      C1972   1.404       .  A
C1972      F1973   1.358       .  S
C1977      C1978   1.403       .  A
C1977      C1982   1.401       .  A
C1977      H1984   1.083       .  S
C1978      C1979   1.405       .  A
C1979      C1980   1.395       .  A
C1979      F1986   1.358       .  S
C1980      C1981   1.402       .  A
C1980      H1985   1.084       .  S
C1981      C1982   1.405       .  A
C1987      C1988   1.407       .  A
C1987      C1992   1.403       .  A
C1987      H1994   1.083       .  S
C1988      C1989   1.411       .  A
C1989      C1990   1.389       .  A
C1989      F1996   1.358       .  S
C1990      C1991   1.401       .  A
C1990      H1995   1.082       .  S
C1991      C1992   1.408       .  A
C1992      F1993   1.357       .  S
C1997      C1998   1.408       .  A
C1997      C2002   1.395       .  A
C1997      H2004   1.083       .  S
C1998      C1999   1.407       .  A
C1999      C2000   1.393       .  A
C1999      F2006   1.358       .  S
C2000      C2001   1.403       .  A
C2000      H2005   1.084       .  S
C2001      C2002   1.400       .  A
C2002      F2003   1.357       .  S
C2007      C2008   1.402       .  A
C2007      C2012   1.403       .  A
C2007      H2014   1.083       .  S
C2008      C2009   1.408       .  A
C2009      C2010   1.391       .  A
C2009      F2016   1.357       .  S
C2010      C2011   1.400       .  A
C2010      H2015   1.084       .  S
C2011      C2012   1.411       .  A
C2012      F2013   1.356       .  S
C2017      C2018   1.405       .  A
C2017      C2022   1.397       .  A
C2017      H2024   1.083       .  S
C2018      C2019   1.408       .  A
C2019      C2020   1.395       .  A
C2019      F2026   1.358       .  S
C2020      C2021   1.403       .  A
C2020      H2025   1.083       .  S
C2021      C2022   1.406       .  A
C2022      F2023   1.357       .  S
C2027      C2028   1.402       .  A
C2027      C2032   1.393       .  A
C2027      H2034   1.084       .  S
C2028      C2029   1.407       .  A
C2029      C2030   1.411       .  A
C2029      F2036   1.357       .  S
C2030      C2031   1.413       .  A
C2030      H2035   1.082       .  S
C2031      C2032   1.410       .  A
C2032      F2033   1.358       .  S
C2037      C2038   1.406       .  A
C2037      C2042   1.400       .  A
C2037      H2044   1.083       .  S
C2038      C2039   1.401       .  A
C2039      C2040   1.392       .  A
C2039      F2046   1.358       .  S
C2040      C2041   1.404       .  A
C2040      H2045   1.084       .  S
C2041      C2042   1.402       .  A
C2042      F2043   1.357       .  S
C2047      C2048   1.410       .  A
C2047      C2052   1.405       .  A
C2047      H2054   1.083       .  S
C2048      C2049   1.407       .  A
C2049      C2050   1.397       .  A
C2049      F2056   1.357       .  S
C2050      C2051   1.405       .  A
C2050      H2055   1.084       .  S
C2051      C2052   1.405       .  A
C2052      F2053   1.357       .  S
C2057      C2058   1.409       .  A
C2057      C2062   1.393       .  A
C2057      H2064   1.083       .  S
C2058      C2059   1.411       .  A
C2059      C2060   1.405       .  A
C2059      F2066   1.357       .  S
C2060      C2061   1.405       .  A
C2060      H2065   1.083       .  S
C2061      C2062   1.401       .  A
C2062      F2063   1.358       .  S
C2067      C2068   1.404       .  A
C2067      C2072   1.402       .  A
C2067      H2074   1.083       .  S
C2068      C2069   1.403       .  A
C2069      C2070   1.394       .  A
C2070      C2071   1.403       .  A
C2070      H2075   1.084       .  S
C2071      C2072   1.405       .  A
C2072      F2073   1.357       .  S
C2077      C2078   1.408       .  A
C2077      C2082   1.394       .  A
C2077      H2084   1.083       .  S
C2078      C2079   1.406       .  A
C2079      C2080   1.394       .  A
C2079      F2086   1.357       .  S
C2080      C2081   1.403       .  A
C2080      H2085   1.084       .  S
C2081      C2082   1.400       .  A
C2087      C2088   1.403       .  A
C2087      C2092   1.393       .  A
C2087      H2094   1.083       .  S
C2088      C2089   1.406       .  A
C2089      C2090   1.396       .  A
C2089      F2096   1.357       .  S
C2090      C2091   1.404       .  A
C2090      H2095   1.083       .  S
C2091      C2092   1.406       .  A
C2092      F2093   1.357       .  S
