geometry optimzed in LAMMPS
_audit_creation_date              2020-11-30 
_audit_creation_method            'lammps2cif' 
_symmetry_space_group_name_H-M    'P1' 
_symmetry_Int_Tables_number       1 
_symmetry_cell_setting            triclinic 
loop_ 
_symmetry_equiv_pos_as_xyz 
  x,y,z 
_cell_length_a                    33.53451532 
_cell_length_b                    33.1159121806341 
_cell_length_c                    33.89726047272221 
_cell_angle_alpha                 90.09536907103362 
_cell_angle_beta                  90.4711597067759 
_cell_angle_gamma                 89.53360530984055 
loop_ 
_atom_site_label 
_atom_site_type_symbol 
_atom_site_fract_x 
_atom_site_fract_y 
_atom_site_fract_z 
_atom_site_charge 
N1          N  0.27491485  0.89287354  0.99993773    -0.02900
C2          C  0.28692320  0.87763134  0.03544641    -0.00300
C3          C  0.32140880  0.85502287  0.03141389    -0.23200
C4          C  0.32880686  0.85260116  0.99187029    -0.23400
C5          C  0.29733187  0.87195907  0.97288573    -0.00400
H6          H  0.33581115  0.83683003  0.05397417     0.13300
H7          H  0.35031658  0.83237750  0.97846239     0.13400
N8          N  0.61774302  0.06494459  0.00262028    -0.02900
C9          C  0.61050545  0.08918987  0.03485097    -0.00300
C10         C  0.60180211  0.12825813  0.02310102    -0.23200
C11         C  0.60312866  0.12888136  0.98308252    -0.23400
C12         C  0.61320044  0.09035921  0.97109547    -0.00400
H13         H  0.59746800  0.15430030  0.04198804     0.13300
H14         H  0.60052111  0.15545871  0.96465088     0.13400
N15         N  0.85228818  0.96419861  0.35109692    -0.02900
C16         C  0.83666731  0.99758811  0.36886135    -0.00300
C17         C  0.81983680  0.98780983  0.40452158    -0.23200
C18         C  0.82165947  0.94656541  0.40725246    -0.23400
C19         C  0.83618006  0.93252256  0.37151918    -0.00400
H20         H  0.80281557  0.00763756  0.42354518     0.13300
H21         H  0.80572632  0.92896629  0.42881994     0.13400
N22         N  0.01980061  0.98835091  0.67179801    -0.02900
C23         C  0.03602363  0.02403731  0.65895318    -0.00300
C24         C  0.07033599  0.01642247  0.63765888    -0.23200
C25         C  0.07625595  0.97583082  0.63739486    -0.23400
C26         C  0.04613586  0.95916322  0.65931579    -0.00400
H27         H  0.09115673  0.03842188  0.62661591     0.13300
H28         H  0.10289816  0.96054163  0.62714165     0.13400
N29         N  0.92593734  0.65177527  0.08464184    -0.02900
C30         C  0.95394261  0.62781032  0.10281421    -0.00300
C31         C  0.93590453  0.59671230  0.12296163    -0.23200
C32         C  0.89588098  0.60455158  0.12196090    -0.23400
C33         C  0.89038425  0.63914058  0.09976101    -0.00400
H34         H  0.95052738  0.57531529  0.14250921     0.13300
H35         H  0.87379082  0.58984966  0.13995145     0.13400
N36         N  0.92627568  0.25585016  0.91899906    -0.02900
C37         C  0.89360092  0.24209594  0.89841455    -0.00300
C38         C  0.90514896  0.21435866  0.87017267    -0.23200
C39         C  0.94569968  0.21155778  0.87183147    -0.23400
C40         C  0.95841008  0.23723774  0.90140192    -0.00400
H41         H  0.88627564  0.20100213  0.84769256     0.13300
H42         H  0.96432700  0.19497795  0.85138932     0.13400
N43         N  0.59093970  0.89252790  0.99914219    -0.02900
C44         C  0.57316050  0.87406698  0.96750422    -0.00300
C45         C  0.54131144  0.85116023  0.97985940    -0.23200
C46         C  0.54294482  0.85041447  0.02012071    -0.23400
C47         C  0.57428059  0.87485035  0.03160469    -0.00400
H48         H  0.52450773  0.83013902  0.96188706     0.13300
H49         H  0.52658621  0.82980951  0.03857367     0.13400
N50         N  0.25806852  0.06608432  0.98357248    -0.02900
C51         C  0.26733860  0.08779845  0.95039158    -0.00300
C52         C  0.27168370  0.12825030  0.95990871    -0.23200
C53         C  0.26597635  0.13201821  0.99936884    -0.23400
C54         C  0.25722124  0.09408921  0.01334869    -0.00400
H55         H  0.27699498  0.15294866  0.93978579     0.13300
H56         H  0.26544369  0.16003606  0.01587225     0.13400
N57         N  0.84831970  0.97222340  0.67470121    -0.02900
C58         C  0.82528660  0.00378649  0.66101674    -0.00300
C59         C  0.79263862  0.98944394  0.64021073    -0.23200
C60         C  0.79477824  0.94853722  0.64103816    -0.23400
C61         C  0.82756416  0.93842521  0.66394062    -0.00400
H62         H  0.76760559  0.00685844  0.62890611     0.13300
H63         H  0.77099979  0.92851799  0.63199486     0.13400
N64         N  0.02092805  0.96825111  0.31716483    -0.02900
C65         C  0.04787012  0.99890868  0.32112783    -0.00300
C66         C  0.08538202  0.98382883  0.33003975    -0.23200
C67         C  0.08243617  0.94292569  0.33111862    -0.23400
C68         C  0.04306466  0.93372166  0.32334686    -0.00400
H69         H  0.11282489  0.00077190  0.33172051     0.13300
H70         H  0.10698260  0.92179084  0.33480812     0.13400
N71         N  0.94269393  0.68312186  0.91768422    -0.02900
C72         C  0.91100655  0.69934367  0.89748083    -0.00300
C73         C  0.92366537  0.72700387  0.86996943    -0.23200
C74         C  0.96431278  0.72693204  0.87161163    -0.23400
C75         C  0.97572222  0.69946662  0.90030454    -0.00400
H76         H  0.90543547  0.74183189  0.84772863     0.13300
H77         H  0.98369559  0.74192128  0.85097301     0.13400
N78         N  0.93736562  0.30077301  0.08425835    -0.02900
C79         C  0.90800927  0.32355477  0.10179720    -0.00300
C80         C  0.92387021  0.35997592  0.11421857    -0.23200
C81         C  0.96444322  0.35610176  0.11202135    -0.23400
C82         C  0.97215513  0.31837195  0.09632642    -0.00400
H83         H  0.90832580  0.38356913  0.13019003     0.13300
H84         H  0.98569941  0.37564030  0.12660606     0.13400
N85         N  0.34267600  0.47957877  0.85336457    -0.02900
C86         C  0.33010106  0.51063041  0.87705393    -0.00300
C87         C  0.31700743  0.49470252  0.91241787    -0.23200
C88         C  0.31446427  0.45364274  0.90737951    -0.23400
C89         C  0.32890006  0.44527731  0.87025584    -0.00400
H90         H  0.30524335  0.51138491  0.93723997     0.13300
H91         H  0.29913175  0.43298984  0.92663750     0.13400
N92         N  0.35859723  0.47423640  0.19604231    -0.02900
C93         C  0.34129404  0.50964197  0.20847299    -0.00300
C94         C  0.31093714  0.50184689  0.23459265    -0.23200
C95         C  0.30866054  0.46087584  0.23822079    -0.23400
C96         C  0.33746958  0.44437521  0.21400460    -0.00400
H97         H  0.29031262  0.52366193  0.24697673     0.13300
H98         H  0.28551132  0.44465522  0.25345503     0.13400
N99         N  0.15632150  0.39014950  0.50962043    -0.02900
C100        C  0.17620308  0.36364735  0.48549219    -0.00300
C101        C  0.19632780  0.33500187  0.50780314    -0.23200
C102        C  0.18771437  0.34281306  0.54636869    -0.23400
C103        C  0.16306384  0.37622558  0.54710262    -0.00400
H104        H  0.21171402  0.30843925  0.49687051     0.13300
H105        H  0.19539741  0.32405338  0.57133120     0.13400
O106        O  0.24956351  0.30286542  0.76251341    -0.78000
C107        C  0.25460781  0.20228021  0.67180055     0.83100
O108        O  0.12025333  0.29676348  0.70714028    -0.79100
O109        O  0.13760351  0.14969897  0.71496744    -0.80600
O110        O  0.22177910  0.18043844  0.82811080    -0.80300
O111        O  0.23443092  0.28217595  0.82308996    -0.79000
Zn112      Zn  0.21758627  0.26746448  0.72504135     1.55700
O113        O  0.21566654  0.13799327  0.77693847    -0.80400
Cd114      Cd  0.19588336  0.23426804  0.81079761     1.59700
Cd115      Cd  0.12523195  0.24711876  0.74521001     1.59600
O116        O  0.14432088  0.24148190  0.84446494    -0.80400
O117        O  0.18285680  0.23096467  0.75301041    -1.90900
Cd118      Cd  0.19196571  0.17457312  0.73227150     1.59900
O119        O  0.09811008  0.25772360  0.79936313    -0.80300
O120        O  0.23183463  0.17444052  0.68446257    -0.79000
C121        C  0.14743741  0.31441612  0.68757031     0.83600
C122        C  0.25254541  0.30606873  0.79991749     0.83200
O123        O  0.25361102  0.23767662  0.68674371    -0.77900
C124        C  0.22602378  0.14562509  0.81248527     0.84000
O125        O  0.18409128  0.30498139  0.69198510    -0.78000
C126        C  0.10861532  0.25139484  0.83515049     0.84200
C127        C  0.10187366  0.16316365  0.71238022     0.84500
O128        O  0.09262416  0.19946884  0.72125536    -0.80400
N129        N  0.76429901  0.38983418  0.50511368    -0.02900
C130        C  0.78418015  0.36958192  0.53472971    -0.00300
C131        C  0.81692341  0.34932059  0.51945771    -0.23200
C132        C  0.81290278  0.35051271  0.47935116    -0.23400
C133        C  0.77913375  0.37324076  0.47147142    -0.00400
H134        H  0.83670741  0.32902297  0.53540938     0.13300
H135        H  0.82884899  0.33142363  0.45875923     0.13400
N136        N  0.42296606  0.18232361  0.56979277    -0.02900
C137        C  0.39016384  0.20443009  0.58137466    -0.00300
C138        C  0.40186278  0.23718040  0.60396867    -0.23200
C139        C  0.44216132  0.23484996  0.60815946    -0.23400
C140        C  0.45439288  0.20041613  0.58859622    -0.00400
H141        H  0.38259657  0.25782260  0.61986167     0.13300
H142        H  0.45989885  0.25286019  0.62828526     0.13400
O143        O  0.60587744  0.22061054  0.67771812    -0.78000
C144        C  0.59509357  0.29396313  0.77665055     0.83100
O145        O  0.73881980  0.27374766  0.69299435    -0.79100
O146        O  0.71010280  0.25721562  0.83495128    -0.80600
O147        O  0.64966550  0.13046619  0.78621891    -0.80300
O148        O  0.61463990  0.15617025  0.69453080    -0.79000
Zn149      Zn  0.64291885  0.25395855  0.71115449     1.55700
O150        O  0.64855968  0.17999246  0.83119583    -0.80400
Cd151      Cd  0.66234772  0.16187296  0.73473639     1.59700
Cd152      Cd  0.73172029  0.23190217  0.73842505     1.59600
O153        O  0.71349143  0.13399351  0.71307347    -0.80400
O154        O  0.67410736  0.22045299  0.74679810    -1.90900
Cd155      Cd  0.66062529  0.23392360  0.80312292     1.59900
O156        O  0.76174161  0.17945055  0.72207318    -0.80300
O157        O  0.61081215  0.27327248  0.80468718    -0.79000
C158        C  0.71353702  0.29145231  0.67041563     0.83600
C159        C  0.59664386  0.18355654  0.67453577     0.83200
O160        O  0.60749833  0.29064200  0.74145733    -0.77900
C161        C  0.64653046  0.14271275  0.82172259     0.84000
O162        O  0.67617801  0.28697732  0.67439426    -0.78000
C163        C  0.75008565  0.14428327  0.71219121     0.84200
C164        C  0.74675591  0.26020770  0.82524217     0.84500
O165        O  0.75818885  0.25185255  0.79030303    -0.80400
N166        N  0.13245399  0.56150156  0.48818744    -0.02900
C167        C  0.12337707  0.58782349  0.51819982    -0.00300
C168        C  0.10187142  0.62052448  0.50433251    -0.23200
C169        C  0.09848015  0.61594816  0.46470389    -0.23400
C170        C  0.11702539  0.57987615  0.45485929    -0.00400
H171        H  0.09350511  0.64724945  0.52085930     0.13300
H172        H  0.08621611  0.63829301  0.44462498     0.13400
O173        O  0.19573794  0.79533820  0.82288152    -0.78000
C174        C  0.12751177  0.81600779  0.71316199     0.83100
O175        O  0.12929643  0.66833276  0.79397639    -0.79100
O176        O  0.17135824  0.69911624  0.65716856    -0.80600
O177        O  0.28655120  0.75348553  0.71805741    -0.80300
O178        O  0.25803515  0.77520640  0.81099322    -0.79000
Zn179      Zn  0.16208781  0.76577829  0.78167176     1.55700
O180        O  0.24490210  0.76431717  0.66820000    -0.80400
Cd181      Cd  0.25157266  0.73478846  0.76488071     1.59700
Cd182      Cd  0.17639871  0.67315411  0.75339043     1.59600
O183        O  0.27244926  0.68032237  0.78867692    -0.80400
O184        O  0.19426355  0.73094829  0.74794701    -1.90900
Cd185      Cd  0.18882564  0.74854863  0.69129531     1.59900
O186        O  0.22151856  0.63891760  0.77842527    -0.80300
O187        O  0.14734272  0.79711671  0.68660078    -0.79000
C188        C  0.11384502  0.69551028  0.81606384     0.83600
C189        C  0.23289168  0.79531640  0.83117063     0.83200
O190        O  0.13052017  0.80634797  0.74946622    -0.77900
C191        C  0.28041917  0.76362882  0.68221579     0.84000
O192        O  0.12373277  0.73236407  0.81259749    -0.78000
C193        C  0.25617041  0.64585979  0.79234830     0.84200
C194        C  0.16548480  0.66154093  0.66336284     0.84500
O195        O  0.16529488  0.64696037  0.69822398    -0.80400
N196        N  0.50185180  0.47082360  0.79082871    -0.02900
C197        C  0.52216036  0.50226519  0.77460881    -0.00300
C198        C  0.54589927  0.48903630  0.74408577    -0.23200
C199        C  0.54171084  0.44823393  0.74191727    -0.23400
C200        C  0.51506202  0.43728476  0.77086207    -0.00400
H201        H  0.56778053  0.50658002  0.72841716     0.13300
H202        H  0.55925619  0.42811207  0.72364328     0.13400
N203        N  0.44819927  0.78754395  0.57320484    -0.02900
C204        C  0.41970196  0.81263662  0.58953991    -0.00300
C205        C  0.43627728  0.84846392  0.60159025    -0.23200
C206        C  0.47636493  0.84419670  0.59725571    -0.23400
C207        C  0.48358016  0.80580923  0.58226882    -0.00400
H208        H  0.42180382  0.87175018  0.61891882     0.13300
H209        H  0.49787482  0.86389310  0.61122374     0.13400
N210        N  0.74919713  0.56458277  0.50836818    -0.02900
C211        C  0.75274849  0.59093277  0.47730676    -0.00300
C212        C  0.76654773  0.62787144  0.48997696    -0.23200
C213        C  0.77076782  0.62564498  0.52971967    -0.23400
C214        C  0.76060236  0.58694605  0.54089587    -0.00400
H215        H  0.76928817  0.65498803  0.47243097     0.13300
H216        H  0.77854648  0.65056310  0.54893458     0.13400
O217        O  0.75088409  0.79102053  0.76372261    -0.78000
C218        C  0.64364514  0.79482624  0.83271979     0.83100
O219        O  0.73864296  0.65628561  0.81730249    -0.79100
O220        O  0.59587294  0.68111729  0.78823727    -0.80600
O221        O  0.64927756  0.74598255  0.67096563    -0.80300
O222        O  0.74087080  0.77717342  0.70023445    -0.79000
Zn223      Zn  0.71585354  0.75405253  0.79473041     1.55700
O224        O  0.59992835  0.74785881  0.71486234    -0.80400
Cd225      Cd  0.69960074  0.73046232  0.70400007     1.59700
Cd226      Cd  0.69539333  0.66130858  0.77271564     1.59600
O227        O  0.72258946  0.67863960  0.67801954    -0.80400
O228        O  0.68449156  0.71967462  0.76021047    -1.90900
Cd229      Cd  0.62627037  0.73196963  0.76825926     1.59900
O230        O  0.71585112  0.62996245  0.72297555    -0.80300
O231        O  0.61840824  0.77772205  0.80995976    -0.79000
C232        C  0.75861730  0.68357878  0.83511969     0.83600
C233        C  0.75759927  0.79782144  0.72745488     0.83200
O234        O  0.68098582  0.78817860  0.83000356    -0.77900
C235        C  0.61264611  0.75116530  0.67963374     0.84000
O236        O  0.75207276  0.72097020  0.82915520    -0.78000
C237        C  0.72536929  0.64173958  0.68849656     0.84200
C238        C  0.60675668  0.64461064  0.79409065     0.84500
O239        O  0.64299911  0.63358435  0.78947884    -0.80400
N240        N  0.43827806  0.12213480  0.40993520    -0.02900
C241        C  0.41118883  0.09528777  0.39495036    -0.00300
C242        C  0.43114629  0.06108955  0.38177428    -0.23200
C243        C  0.47098588  0.07018207  0.38156192    -0.23400
C244        C  0.47442067  0.10837782  0.39745500    -0.00400
H245        H  0.41791705  0.03549279  0.36687764     0.13300
H246        H  0.49406564  0.05310203  0.36668908     0.13400
O247        O  0.62260272  0.28822649  0.25196014    -0.78000
C248        C  0.60951989  0.18220680  0.32469712     0.83100
O249        O  0.74883467  0.27179660  0.31957801    -0.79100
O250        O  0.72510290  0.12974328  0.29127361    -0.80600
O251        O  0.66885537  0.17957160  0.17008876    -0.80300
O252        O  0.64398715  0.27676491  0.19094632    -0.79000
Zn253      Zn  0.65452526  0.25203517  0.28760339     1.55700
O254        O  0.66046552  0.13214848  0.21624058    -0.80400
Cd255      Cd  0.68665657  0.23124626  0.20024092     1.59700
Cd256      Cd  0.74792452  0.22697828  0.27589323     1.59600
O257        O  0.74082872  0.25204242  0.17753055    -0.80400
O258        O  0.69136833  0.21822042  0.25804545    -1.90900
Cd259      Cd  0.67711490  0.16067624  0.26810547     1.59900
O260        O  0.78227260  0.24520167  0.22857313    -0.80300
O261        O  0.63061191  0.15540580  0.30755305    -0.79000
C262        C  0.72055060  0.29220287  0.33525557     0.83600
C263        C  0.62183758  0.29589407  0.21521406     0.83200
O264        O  0.61574801  0.21972571  0.31982267    -0.77900
C265        C  0.65930305  0.14388170  0.18048204     0.84000
O266        O  0.68434670  0.28772253  0.32482514    -0.78000
C267        C  0.77565559  0.25512601  0.19275417     0.84200
C268        C  0.76093377  0.13819636  0.30063003     0.84500
O269        O  0.77449342  0.17392327  0.29742571    -0.80400
N270        N  0.41646335  0.79712157  0.41591745    -0.02900
C271        C  0.44710956  0.82037975  0.40174389    -0.00300
C272        C  0.43277037  0.85676909  0.38793226    -0.23200
C273        C  0.39235286  0.85438690  0.38839402    -0.23400
C274        C  0.38254832  0.81706086  0.40392625    -0.00400
H275        H  0.44940814  0.87882401  0.37137362     0.13300
H276        H  0.37292733  0.87464316  0.37204111     0.13400
N277        N  0.52632811  0.46854531  0.16021823    -0.02900
C278        C  0.54219852  0.49881012  0.13807232    -0.00300
C279        C  0.56148730  0.48254851  0.10567899    -0.23200
C280        C  0.56360378  0.44166378  0.11159792    -0.23400
C281        C  0.54327461  0.43392476  0.14598924    -0.00400
H282        H  0.57927634  0.49897546  0.08467857     0.13300
H283        H  0.58258453  0.42078629  0.09567939     0.13400
O284        O  0.66340677  0.66005195  0.32049105    -0.78000
C285        C  0.58677288  0.76549800  0.31481185     0.83100
O286        O  0.62819265  0.66560587  0.18477599    -0.79100
O287        O  0.63968125  0.81473279  0.20804088    -0.80600
O288        O  0.75435382  0.76670934  0.29281732    -0.80300
O289        O  0.72815123  0.67023978  0.31215805    -0.79000
Zn290      Zn  0.63316698  0.69333730  0.28016496     1.55700
O291        O  0.70820565  0.81441482  0.28283502    -0.80400
Cd292      Cd  0.72756998  0.71512034  0.26767621     1.59700
Cd293      Cd  0.66382376  0.71558360  0.19339054     1.59600
O294        O  0.76106084  0.69895754  0.21730608    -0.80400
O295        O  0.67048775  0.72714546  0.25105794    -1.90900
Cd296      Cd  0.65763244  0.78577645  0.26032336     1.59900
O297        O  0.71806791  0.70338280  0.16681077    -0.80300
O298        O  0.61025077  0.79170187  0.30025906    -0.79000
C299        C  0.60744498  0.64449174  0.20823354     0.83600
C300        C  0.69953252  0.65318099  0.33043319     0.83200
O301        O  0.59167801  0.72774713  0.30861905    -0.77900
C302        C  0.74258098  0.80340821  0.29570270     0.84000
O303        O  0.60519055  0.65258275  0.24489493    -0.78000
C304        C  0.75317268  0.69719843  0.18022723     0.84200
C305        C  0.63361318  0.80148165  0.17312435     0.84500
O306        O  0.63969826  0.76464127  0.16386083    -0.80400
O307        O  0.10873669  0.72049099  0.17345752    -0.78000
C308        C  0.09833606  0.78798241  0.27658652     0.83100
O309        O  0.24013884  0.78062109  0.18554354    -0.79100
O310        O  0.21314672  0.75015951  0.32610995    -0.80600
O311        O  0.15828605  0.62656063  0.27217487    -0.80300
O312        O  0.12743563  0.65610609  0.18233466    -0.79000
Zn313      Zn  0.14515891  0.75483748  0.20620202     1.55700
O314        O  0.15149492  0.67275617  0.31970430    -0.80400
Cd315      Cd  0.17384024  0.66129140  0.22303112     1.59700
Cd316      Cd  0.23644854  0.73580104  0.22829195     1.59600
O317        O  0.22749807  0.63694559  0.20264345    -0.80400
O318        O  0.17994753  0.71987392  0.23742423    -1.90900
Cd319      Cd  0.16552997  0.72715437  0.29418513     1.59900
O320        O  0.27100218  0.68695734  0.20985410    -0.80300
O321        O  0.11679762  0.76510969  0.30077763    -0.79000
C322        C  0.21322361  0.79889508  0.16543080     0.83600
C323        C  0.10409516  0.68283650  0.16756902     0.83200
O324        O  0.10820497  0.78832717  0.24039242    -0.77900
C325        C  0.15051326  0.63632889  0.30773154     0.84000
O326        O  0.17628917  0.79217101  0.17083109    -0.78000
C327        C  0.26307131  0.65041404  0.20117782     0.84200
C328        C  0.24870455  0.75850772  0.31621488     0.84500
O329        O  0.26109923  0.75516218  0.28088670    -0.80400
O330        O  0.27187244  0.20333006  0.30999277    -0.78000
C331        C  0.26827005  0.29187640  0.21242122     0.83100
O332        O  0.14217308  0.27422754  0.31367971    -0.79100
O333        O  0.14657023  0.25257753  0.16703944    -0.80600
O334        O  0.21466857  0.12984267  0.19942895    -0.80300
O335        O  0.24892945  0.14259308  0.29329218    -0.79000
Zn336      Zn  0.23452708  0.24369437  0.28223676     1.55700
O337        O  0.21506341  0.18299558  0.15916456    -0.80400
Cd338      Cd  0.20267025  0.15693974  0.25388642     1.59700
Cd339      Cd  0.13898051  0.23320662  0.26613793     1.59600
O340        O  0.14979794  0.13155233  0.27123894    -0.80400
O341        O  0.19449051  0.21692874  0.24928258    -1.90900
Cd342      Cd  0.20052212  0.23267343  0.19252680     1.59900
O343        O  0.10607144  0.18182120  0.28097939    -0.80300
O344        O  0.24527390  0.27542046  0.18699211    -0.79000
C345        C  0.17210150  0.28733238  0.33347069     0.83600
C346        C  0.27366315  0.16486573  0.31194548     0.83200
O347        O  0.26706701  0.28198958  0.24879127    -0.77900
C348        C  0.21774294  0.14511853  0.16510348     0.84000
O349        O  0.20768591  0.27723410  0.32453088    -0.78000
C350        C  0.11481817  0.14422764  0.27947440     0.84200
C351        C  0.11233711  0.26023268  0.18158191     0.84500
O352        O  0.10630874  0.25737555  0.21866930    -0.80400
C353        C  0.60018027  0.54025049  0.16439270    -0.01300
C354        C  0.55840047  0.53651198  0.15662446     0.08400
C355        C  0.53275099  0.56892925  0.16696595    -0.01400
C356        C  0.54820861  0.60379579  0.18557913    -0.01400
C357        C  0.58943697  0.60704790  0.19283427     0.08500
C358        C  0.61505714  0.57490395  0.18317636    -0.01600
Br359      Br  0.67107520  0.57813632  0.19739213    -0.00200
Br360      Br  0.63922635  0.49970341  0.14897337    -0.00200
Br361      Br  0.51322728  0.64742804  0.20088486    -0.00200
Br362      Br  0.47709803  0.56768548  0.15241721    -0.00200
C363        C  0.34305654  0.75700672  0.37621116    -0.01300
C364        C  0.34457232  0.79767158  0.38985853     0.08400
C365        C  0.30914711  0.82158835  0.38727075    -0.01400
C366        C  0.27666224  0.80858772  0.36412789    -0.01400
C367        C  0.27783726  0.77025116  0.34663362     0.08500
C368        C  0.30894680  0.74333604  0.35602674    -0.01600
Br369      Br  0.30313756  0.68700412  0.34259541    -0.00200
Br370      Br  0.38583383  0.71846324  0.38407806    -0.00200
Br371      Br  0.23104972  0.84341932  0.35543523    -0.00200
Br372      Br  0.30349996  0.87087196  0.41751125    -0.00200
C373        C  0.47909468  0.78735464  0.34253067    -0.01300
C374        C  0.48304541  0.80406975  0.38093350     0.08400
C375        C  0.52173766  0.81052922  0.39637359    -0.01400
C376        C  0.55573129  0.79737266  0.37527895    -0.01400
C377        C  0.55148532  0.77914935  0.33780830     0.08500
C378        C  0.51302827  0.77448416  0.32150211    -0.01600
Br379      Br  0.50702678  0.75238164  0.26897505    -0.00200
Br380      Br  0.42784032  0.78571304  0.31625209    -0.00200
Br381      Br  0.60804575  0.80303983  0.39828003    -0.00200
Br382      Br  0.52800684  0.83799966  0.44619567    -0.00200
C383        C  0.60145340  0.36839199  0.21838741    -0.01300
C384        C  0.59652713  0.32995271  0.20119085     0.08400
C385        C  0.56868108  0.32498748  0.17023783    -0.01400
C386        C  0.54767916  0.35875543  0.15499105    -0.01400
C387        C  0.55459961  0.39787373  0.17023440     0.08500
C388        C  0.58075936  0.40208870  0.20303109    -0.01600
Br389      Br  0.59265512  0.45397034  0.22540040    -0.00200
Br390      Br  0.64007782  0.37601279  0.26063214    -0.00200
Br391      Br  0.51008844  0.35154558  0.11232024    -0.00200
Br392      Br  0.55939056  0.27187233  0.14875798    -0.00200
C393        C  0.50309545  0.16207266  0.35358198    -0.01300
C394        C  0.50802350  0.13485209  0.38553888     0.08400
C395        C  0.54684869  0.12694207  0.40013619    -0.01400
C396        C  0.58036329  0.14334289  0.38114735    -0.01400
C397        C  0.57516040  0.16933512  0.34857023     0.08500
C398        C  0.53640567  0.18019395  0.33615995    -0.01600
Br399      Br  0.52892228  0.21701223  0.29230062    -0.00200
Br400      Br  0.45185371  0.17126105  0.32917408    -0.00200
Br401      Br  0.63347979  0.12978804  0.39925667    -0.00200
Br402      Br  0.55408499  0.09253360  0.44545209    -0.00200
C403        C  0.34104070  0.12500658  0.39519187    -0.01300
C404        C  0.37374905  0.10930566  0.37376802     0.08400
C405        C  0.37097285  0.10899087  0.33154339    -0.01400
C406        C  0.33866477  0.12817052  0.31217390    -0.01400
C407        C  0.30728679  0.14535439  0.33376679     0.08500
C408        C  0.30813540  0.14308088  0.37528495    -0.01600
Br409      Br  0.26368879  0.16422432  0.40470080    -0.00200
Br410      Br  0.33910300  0.11820193  0.45158700    -0.00200
Br411      Br  0.33817899  0.13320315  0.25529789    -0.00200
Br412      Br  0.40982931  0.08256436  0.29779026    -0.00200
C413        C  0.72008923  0.57095896  0.60142383    -0.01300
C414        C  0.75783151  0.57771339  0.58429568     0.08400
C415        C  0.78812423  0.59401296  0.60914070    -0.01400
C416        C  0.77823238  0.61246870  0.64530678    -0.01400
C417        C  0.73870767  0.61208778  0.65851165     0.08500
C418        C  0.71050924  0.58838651  0.63831230    -0.01600
Br419      Br  0.65732670  0.58393517  0.65921526    -0.00200
Br420      Br  0.67989375  0.54108880  0.57407786    -0.00200
Br421      Br  0.81788990  0.64164572  0.67524204    -0.00200
Br422      Br  0.84241843  0.59713319  0.59125209    -0.00200
C423        C  0.75456180  0.58399493  0.40396450    -0.01300
C424        C  0.73196361  0.59007607  0.43835598     0.08400
C425        C  0.69524908  0.61120523  0.43530305    -0.01400
C426        C  0.68275546  0.62841582  0.39916638    -0.01400
C427        C  0.70800863  0.62672849  0.36567756     0.08500
C428        C  0.74284249  0.60221238  0.36785463    -0.01600
Br429      Br  0.77501446  0.59339273  0.32163167    -0.00200
Br430      Br  0.80402572  0.55420730  0.40765609    -0.00200
Br431      Br  0.63250531  0.65772895  0.39830175    -0.00200
Br432      Br  0.66524428  0.62314602  0.48266027    -0.00200
C433        C  0.40135607  0.76153752  0.52197148    -0.01300
C434        C  0.44077502  0.76784575  0.53470724     0.08400
C435        C  0.47026584  0.76078328  0.50517534    -0.01400
C436        C  0.45843606  0.75948401  0.46501911    -0.01400
C437        C  0.42070159  0.77473729  0.45349360     0.08500
C438        C  0.39022237  0.77058577  0.48268747    -0.01600
Br439      Br  0.33364767  0.77187026  0.47332807    -0.00200
Br440      Br  0.36844942  0.72653487  0.55308305    -0.00200
Br441      Br  0.48667427  0.72442764  0.42909123    -0.00200
Br442      Br  0.52458225  0.74530923  0.51626527    -0.00200
C443        C  0.55713266  0.80564256  0.59723401    -0.01300
C444        C  0.52058819  0.78442810  0.59684296     0.08400
C445        C  0.51927731  0.74636111  0.61600540    -0.01400
C446        C  0.55037496  0.73496334  0.64202598    -0.01400
C447        C  0.58342154  0.76038942  0.64788207     0.08500
C448        C  0.58799541  0.79436470  0.62347830    -0.01600
Br449      Br  0.63501816  0.82733711  0.62793977    -0.00200
Br450      Br  0.56543394  0.84935203  0.56056108    -0.00200
Br451      Br  0.54832219  0.68382550  0.66920522    -0.00200
Br452      Br  0.47719100  0.70800403  0.60584530    -0.00200
C453        C  0.53766162  0.61355515  0.78745552    -0.01300
C454        C  0.57684724  0.61275282  0.80369746     0.08400
C455        C  0.59005995  0.57710338  0.82275495    -0.01400
C456        C  0.56950003  0.54073188  0.81689518    -0.01400
C457        C  0.53351322  0.54028610  0.79488888     0.08500
C458        C  0.51631823  0.57716263  0.78281808    -0.01600
Br459      Br  0.46550208  0.57686535  0.75591648    -0.00200
Br460      Br  0.51312472  0.66324762  0.76970058    -0.00200
Br461      Br  0.59408382  0.49072545  0.83409837    -0.00200
Br462      Br  0.63677022  0.57771740  0.85658640    -0.00200
C463        C  0.38869618  0.77872137  0.64819519    -0.01300
C464        C  0.38385797  0.79857165  0.61168436     0.08400
C465        C  0.34504690  0.80969943  0.59944700    -0.01400
C466        C  0.31119844  0.79717842  0.62098738    -0.01400
C467        C  0.31579227  0.77488098  0.65683593     0.08500
C468        C  0.35542467  0.76490430  0.66931769    -0.01600
Br469      Br  0.36659847  0.73021576  0.71416482    -0.00200
Br470      Br  0.44061549  0.77625247  0.67328269    -0.00200
Br471      Br  0.25929114  0.81127829  0.59967884    -0.00200
Br472      Br  0.33877316  0.84427570  0.55395190    -0.00200
C473        C  0.16403529  0.57136639  0.39733041    -0.01300
C474        C  0.12454333  0.57119320  0.41194399     0.08400
C475        C  0.09314129  0.58058833  0.38485322    -0.01400
C476        C  0.10154067  0.59868366  0.34827072    -0.01400
C477        C  0.14119316  0.60507795  0.33722546     0.08500
C478        C  0.17220589  0.58834963  0.36010572    -0.01600
Br479      Br  0.22640508  0.59315069  0.34191450    -0.00200
Br480      Br  0.20820742  0.55311551  0.42862370    -0.00200
Br481      Br  0.05893042  0.61891885  0.31503075    -0.00200
Br482      Br  0.03805889  0.57516619  0.39989959    -0.00200
C483        C  0.17527638  0.62133252  0.55896088    -0.01300
C484        C  0.14412089  0.59281225  0.55675061     0.08400
C485        C  0.12409435  0.58225633  0.59152003    -0.01400
C486        C  0.13128588  0.60369144  0.62702654    -0.01400
C487        C  0.16055789  0.63431283  0.62842140     0.08500
C488        C  0.18479028  0.64022025  0.59498130    -0.01600
Br489      Br  0.23147583  0.67413169  0.59802109    -0.00200
Br490      Br  0.20156643  0.63903236  0.51141979    -0.00200
Br491      Br  0.09790770  0.59366483  0.67194642    -0.00200
Br492      Br  0.08406389  0.54092100  0.58897885    -0.00200
C493        C  0.53261569  0.32913794  0.75338852    -0.01300
C494        C  0.56160660  0.32304148  0.78349053     0.08400
C495        C  0.56016637  0.34805843  0.81717955    -0.01400
C496        C  0.53406381  0.38172452  0.81771494    -0.01400
C497        C  0.51346088  0.39383648  0.78312393     0.08500
C498        C  0.50954612  0.36487454  0.75270937    -0.01600
Br499      Br  0.47663486  0.37656010  0.70725554    -0.00200
Br500      Br  0.52518169  0.28945490  0.71199128    -0.00200
Br501      Br  0.52600038  0.40958040  0.86630983    -0.00200
Br502      Br  0.59627165  0.33958215  0.86112794    -0.00200
C503        C  0.43932228  0.12657773  0.52245430    -0.01300
C504        C  0.42747143  0.16688545  0.52963715     0.08400
C505        C  0.42411314  0.19324106  0.49669018    -0.01400
C506        C  0.42730897  0.17840438  0.45764684    -0.01400
C507        C  0.43497292  0.13722911  0.45033795     0.08500
C508        C  0.44130734  0.11135623  0.48342496    -0.01600
Br509      Br  0.45220099  0.05447443  0.47659927    -0.00200
Br510      Br  0.45800089  0.09322896  0.56543410    -0.00200
Br511      Br  0.42126811  0.21493429  0.41407389    -0.00200
Br512      Br  0.42121991  0.25088350  0.50443404    -0.00200
C513        C  0.49027754  0.16491427  0.64318486    -0.01300
C514        C  0.49078368  0.17951341  0.60392327     0.08400
C515        C  0.52774049  0.18601766  0.58572385    -0.01400
C516        C  0.56344157  0.18284112  0.60795292    -0.01400
C517        C  0.56228806  0.17357806  0.64856520     0.08500
C518        C  0.52576951  0.16277113  0.66564452    -0.01600
Br519      Br  0.52338803  0.15114901  0.72141303    -0.00200
Br520      Br  0.44020714  0.15295389  0.66810668    -0.00200
Br521      Br  0.61388464  0.19379118  0.58360400    -0.00200
Br522      Br  0.52900795  0.20281519  0.53139979    -0.00200
C523        C  0.79429854  0.45937411  0.51098418    -0.01300
C524        C  0.76038326  0.43402615  0.50574891     0.08400
C525        C  0.72349369  0.45313865  0.49676263    -0.01400
C526        C  0.71998021  0.49584444  0.49510751    -0.01400
C527        C  0.75271066  0.52067233  0.50503537     0.08500
C528        C  0.79025792  0.50189399  0.51025652    -0.01600
Br529      Br  0.83747726  0.53472534  0.51082877    -0.00200
Br530      Br  0.84758022  0.43783817  0.51809518    -0.00200
Br531      Br  0.67076978  0.51930858  0.47626417    -0.00200
Br532      Br  0.67697669  0.42140085  0.48658917    -0.00200
C533        C  0.71058216  0.31358451  0.40506032    -0.01300
C534        C  0.72931032  0.31981438  0.36851722     0.08400
C535        C  0.75723950  0.35108333  0.36482184    -0.01400
C536        C  0.77032612  0.37233581  0.39850464    -0.01400
C537        C  0.75491114  0.36308076  0.43593263     0.08500
C538        C  0.72310773  0.33523435  0.43862482    -0.01600
Br539      Br  0.69781275  0.32331449  0.48807450    -0.00200
Br540      Br  0.66998560  0.27261300  0.41024385    -0.00200
Br541      Br  0.81091431  0.41296467  0.39401477    -0.00200
Br542      Br  0.77659859  0.36554660  0.31357238    -0.00200
C543        C  0.75616397  0.30788219  0.56962224    -0.01300
C544        C  0.76311657  0.35052401  0.56892778     0.08400
C545        C  0.75099311  0.37391987  0.60184601    -0.01400
C546        C  0.73391517  0.35512327  0.63512756    -0.01400
C547        C  0.72805948  0.31315226  0.63540537     0.08500
C548        C  0.73673145  0.29036937  0.60174191    -0.01600
Br549      Br  0.71946570  0.23496120  0.59911896    -0.00200
Br550      Br  0.77349385  0.27065492  0.52858031    -0.00200
Br551      Br  0.71763065  0.38651935  0.68017796    -0.00200
Br552      Br  0.76025473  0.43117746  0.60325441    -0.00200
C553        C  0.33903297  0.15764123  0.60960580    -0.01300
C554        C  0.34766742  0.19078523  0.58498913     0.08400
C555        C  0.31776727  0.22082659  0.58090218    -0.01400
C556        C  0.28571839  0.22282521  0.60757705    -0.01400
C557        C  0.28271621  0.19444909  0.63846749     0.08500
C558        C  0.30806130  0.16020653  0.63766609    -0.01600
Br559      Br  0.30345342  0.11859080  0.67708855    -0.00200
Br560      Br  0.36750189  0.10787089  0.60359575    -0.00200
Br561      Br  0.24645257  0.26518540  0.60222610    -0.00200
Br562      Br  0.32315879  0.26181693  0.54110933    -0.00200
C563        C  0.11455796  0.44826712  0.48757956    -0.01300
C564        C  0.15123825  0.43278489  0.50105465     0.08400
C565        C  0.18259803  0.45991447  0.50908418    -0.01400
C566        C  0.17620132  0.50211402  0.50714207    -0.01400
C567        C  0.13926403  0.51808484  0.49325195     0.08500
C568        C  0.10810476  0.49043140  0.48507511    -0.01600
Br569      Br  0.05452980  0.50965519  0.47663718    -0.00200
Br570      Br  0.07389596  0.41148302  0.47043529    -0.00200
Br571      Br  0.21821064  0.53640902  0.52613000    -0.00200
Br572      Br  0.23557374  0.43902703  0.52040374    -0.00200
C573        C  0.19013720  0.36780684  0.41255458    -0.01300
C574        C  0.16605793  0.35377540  0.44349635     0.08400
C575        C  0.14002821  0.32111841  0.43580925    -0.01400
C576        C  0.13917164  0.30200000  0.39858204    -0.01400
C577        C  0.16604649  0.31359761  0.36893238     0.08500
C578        C  0.19061567  0.34756139  0.37573690    -0.01600
Br579      Br  0.22591604  0.36608135  0.33490483    -0.00200
Br580      Br  0.22479039  0.41298479  0.42123217    -0.00200
Br581      Br  0.10401098  0.25674296  0.39033386    -0.00200
Br582      Br  0.10924267  0.29815767  0.47784185    -0.00200
C583        C  0.10842425  0.35979421  0.59240734    -0.01300
C584        C  0.14042418  0.38576909  0.58387489     0.08400
C585        C  0.16283099  0.39992650  0.61633638    -0.01400
C586        C  0.16215515  0.37918692  0.65257705    -0.01400
C587        C  0.13737080  0.34528319  0.65713359     0.08500
C588        C  0.10771965  0.33810668  0.62823651    -0.01600
Br589      Br  0.06919910  0.29569259  0.63490721    -0.00200
Br590      Br  0.06726419  0.35165189  0.55387930    -0.00200
Br591      Br  0.19653122  0.39624285  0.69520136    -0.00200
Br592      Br  0.19527781  0.44691526  0.61092878    -0.00200
C593        C  0.42960932  0.47736958  0.21688318    -0.01300
C594        C  0.40069549  0.47036122  0.18712031     0.08400
C595        C  0.41363671  0.45968883  0.14918224    -0.01400
C596        C  0.45465283  0.46001395  0.13993431    -0.01400
C597        C  0.48387654  0.46905142  0.16941045     0.08500
C598        C  0.47052124  0.47886582  0.20765653    -0.01600
Br599      Br  0.50689374  0.49908652  0.24675805    -0.00200
Br600      Br  0.41370541  0.48031368  0.27148468    -0.00200
Br601      Br  0.46913503  0.45156224  0.08554256    -0.00200
Br602      Br  0.37552624  0.44125469  0.11064576    -0.00200
C603        C  0.29873244  0.39426570  0.17492743    -0.01300
C604        C  0.33205900  0.40222630  0.19949995     0.08400
C605        C  0.35039055  0.36969779  0.21956882    -0.01400
C606        C  0.33186986  0.33152566  0.22031048    -0.01400
C607        C  0.29502297  0.32558167  0.20058660     0.08500
C608        C  0.28107595  0.35585141  0.17442382    -0.01600
Br609      Br  0.23550243  0.34715931  0.14026299    -0.00200
Br610      Br  0.27259683  0.43758830  0.14672099    -0.00200
Br611      Br  0.35692649  0.28742829  0.24860608    -0.00200
Br612      Br  0.39918696  0.37795400  0.24844464    -0.00200
C613        C  0.35391265  0.58316150  0.21522314    -0.01300
C614        C  0.34370435  0.55068909  0.19019979     0.08400
C615        C  0.31675527  0.55924098  0.15902174    -0.01400
C616        C  0.29148724  0.59345541  0.16071743    -0.01400
C617        C  0.29605067  0.62166787  0.19149560     0.08500
C618        C  0.33052158  0.61880356  0.21565940    -0.01600
Br619      Br  0.34492835  0.66188551  0.25112030    -0.00200
Br620      Br  0.39879472  0.57817806  0.25033379    -0.00200
Br621      Br  0.25084635  0.60185901  0.12085447    -0.00200
Br622      Br  0.31463241  0.52473924  0.11384870    -0.00200
C623        C  0.38888658  0.47442348  0.79688358    -0.01300
C624        C  0.38290383  0.47848790  0.83765772     0.08400
C625        C  0.41692343  0.48203843  0.86282698    -0.01400
C626        C  0.45555560  0.48392718  0.84684784    -0.01400
C627        C  0.46181408  0.47513869  0.80667971     0.08500
C628        C  0.42792538  0.47237941  0.78145274    -0.01600
Br629      Br  0.43450208  0.47123915  0.72512053    -0.00200
Br630      Br  0.34308294  0.47263878  0.76239207    -0.00200
Br631      Br  0.49812342  0.50473898  0.87933556    -0.00200
Br632      Br  0.41213901  0.48460996  0.91948847    -0.00200
C633        C  0.27448450  0.41363903  0.82978326    -0.01300
C634        C  0.31286567  0.41049893  0.84714549     0.08400
C635        C  0.33260698  0.37271824  0.84705983    -0.01400
C636        C  0.31348832  0.33826092  0.83109274    -0.01400
C637        C  0.27404880  0.34127041  0.81647237     0.08500
C638        C  0.25456667  0.37900077  0.81638923    -0.01600
Br639      Br  0.19912222  0.38264777  0.80063871    -0.00200
Br640      Br  0.24888723  0.46529749  0.82284320    -0.00200
Br641      Br  0.34077136  0.28692584  0.82967612    -0.00200
Br642      Br  0.38595415  0.36865469  0.86821057    -0.00200
C643        C  0.31745500  0.60544741  0.81311069    -0.01300
C644        C  0.27621198  0.61346815  0.81598378     0.08400
C645        C  0.25367713  0.59161867  0.84362685    -0.01400
C646        C  0.27102481  0.55936143  0.86501825    -0.01400
C647        C  0.31236378  0.54928404  0.86029865     0.08500
C648        C  0.33561635  0.57518598  0.83668365    -0.01600
Br649      Br  0.39279804  0.57470505  0.84116589    -0.00200
Br650      Br  0.34930132  0.63436790  0.77550213    -0.00200
Br651      Br  0.23557664  0.53088373  0.90031913    -0.00200
Br652      Br  0.19870502  0.60714520  0.85414893    -0.00200
C653        C  0.81250585  0.26515536  0.12794361    -0.01300
C654        C  0.80938686  0.27197662  0.16906824     0.08400
C655        C  0.83883050  0.29577278  0.18784359    -0.01400
C656        C  0.87181017  0.31025085  0.16674122    -0.07000
C657        C  0.87395548  0.30541315  0.12482467     0.08500
C658        C  0.84296704  0.28376788  0.10581596    -0.01600
Br659      Br  0.83884873  0.28247414  0.04921107    -0.00200
Br660      Br  0.77668011  0.22829898  0.10153081    -0.00200
Br661      Br  0.91411599  0.33474152  0.19817055    -0.00200
Br662      Br  0.83368895  0.31141233  0.24270037    -0.00200
C663        C  0.00567625  0.26659767  0.14146578    -0.01300
C664        C  0.00849191  0.29590747  0.11110679     0.08400
C665        C  0.04674525  0.31022305  0.10124912    -0.01400
C666        C  0.08100836  0.29814085  0.12317566    -0.01400
C667        C  0.07766831  0.27069992  0.15495913     0.08500
C668        C  0.04014358  0.25294392  0.16182213    -0.01600
Br669      Br  0.03582892  0.20809304  0.19814976    -0.00200
Br670      Br  0.95488526  0.24730413  0.15940539    -0.00200
Br671      Br  0.13184425  0.32127380  0.11057273    -0.00200
Br672      Br  0.05171497  0.34821247  0.05846759    -0.00200
C673        C  0.83805687  0.69465451  0.91331661    -0.01300
C674        C  0.87123881  0.68036035  0.89201711     0.08400
C675        C  0.86459177  0.65730061  0.85737617    -0.01400
C676        C  0.82589157  0.65274145  0.84188477    -0.01400
C677        C  0.79362896  0.67271406  0.85989421     0.08500
C678        C  0.79935253  0.69126509  0.89701236    -0.01600
Br679      Br  0.75433771  0.71434366  0.92413604    -0.00200
Br680      Br  0.84559070  0.72240993  0.96267892    -0.00200
Br681      Br  0.81842389  0.62466307  0.79227914    -0.00200
Br682      Br  0.90875776  0.63764466  0.82670574    -0.00200
C683        C  0.02424585  0.65129120  0.87020073    -0.01300
C684        C  0.01713509  0.68216464  0.89819710     0.08400
C685        C  0.04905449  0.70833738  0.90659351    -0.01400
C686        C  0.08314676  0.70867625  0.88248518    -0.01400
C687        C  0.08418721  0.68539186  0.84737033     0.08500
C688        C  0.05573205  0.65443778  0.84286573    -0.01600
Br689      Br  0.05725462  0.61789945  0.79846024    -0.00200
Br690      Br  0.99286436  0.60339046  0.87100783    -0.00200
Br691      Br  0.12859934  0.74056699  0.89847129    -0.00200
Br692      Br  0.04521284  0.74570077  0.94974398    -0.00200
C693        C  0.04402748  0.84043596  0.26421317    -0.01300
C694        C  0.06679073  0.81678102  0.29109549     0.08400
C695        C  0.06201352  0.82478477  0.33190405    -0.01400
C696        C  0.04503153  0.86178729  0.34407623    -0.01400
C697        C  0.03211013  0.89065875  0.31595572     0.08500
C698        C  0.02699226  0.87736995  0.27669341    -0.01600
Br699      Br  0.99994149  0.91056413  0.23873825    -0.00200
Br700      Br  0.03516364  0.82262729  0.21044477    -0.00200
Br701      Br  0.04478227  0.87497381  0.39936091    -0.00200
Br702      Br  0.07879941  0.78657440  0.37202525    -0.00200
C703        C  0.06190246  0.04569856  0.26632708    -0.01300
C704        C  0.04527827  0.04015893  0.30416273     0.08400
C705        C  0.04301565  0.07359900  0.32998775    -0.01400
C706        C  0.06262597  0.10996602  0.32076206    -0.01400
C707        C  0.08377629  0.11315360  0.28519635     0.08500
C708        C  0.07999536  0.08244880  0.25658664    -0.01600
Br709      Br  0.10218455  0.08985948  0.20461588    -0.00200
Br710      Br  0.06753790  0.00055512  0.23051980    -0.00200
Br711      Br  0.06413891  0.15339379  0.35859445    -0.00200
Br712      Br  0.01731935  0.06802646  0.38009605    -0.00200
C713        C  0.79497348  0.90518043  0.72070928    -0.01300
C714        C  0.82222011  0.90233227  0.68913467     0.08400
C715        C  0.83248484  0.86401406  0.67414440    -0.01400
C716        C  0.81314375  0.82913799  0.68808405    -0.01400
C717        C  0.78313522  0.83259844  0.71700075     0.08500
C718        C  0.77539264  0.87064172  0.73440181    -0.01600
Br719      Br  0.73390275  0.87716360  0.77344406    -0.00200
Br720      Br  0.77974664  0.95723943  0.74182981    -0.00200
Br721      Br  0.82735046  0.77688373  0.66704416    -0.00200
Br722      Br  0.87090137  0.86023486  0.63229198    -0.00200
C723        C  0.81057980  0.07585121  0.64596497    -0.01300
C724        C  0.82591003  0.04734489  0.67342131     0.08400
C725        C  0.82500030  0.05793155  0.71391605    -0.01400
C726        C  0.80109012  0.09062482  0.72677714    -0.01400
C727        C  0.77990921  0.11421547  0.69911248     0.08500
C728        C  0.78636329  0.10804027  0.65873358    -0.01600
Br729      Br  0.75886681  0.14121157  0.62069911    -0.00200
Br730      Br  0.81928341  0.06879027  0.59018470    -0.00200
Br731      Br  0.79456827  0.10119773  0.78238629    -0.00200
Br732      Br  0.85679905  0.02964068  0.75214926    -0.00200
C733        C  0.28320666  0.11586648  0.84951550    -0.01300
C734        C  0.24315002  0.11353352  0.83757523     0.08400
C735        C  0.21815805  0.08527977  0.85558122    -0.01400
C736        C  0.23154965  0.06449520  0.88951592    -0.01400
C737        C  0.26799395  0.07526600  0.90778773     0.08500
C738        C  0.29602241  0.09571713  0.88395194    -0.01600
Br739      Br  0.34964845  0.10420484  0.90277430    -0.00200
Br740      Br  0.31897000  0.15040877  0.82098880    -0.00200
Br741      Br  0.20050720  0.02084298  0.90897465    -0.00200
Br742      Br  0.16433605  0.07837191  0.83635391    -0.00200
C743        C  0.26563791  0.08078148  0.08584099    -0.01300
C744        C  0.24038026  0.09028806  0.05353654     0.08400
C745        C  0.20372151  0.11044998  0.06071921    -0.01400
C746        C  0.19434690  0.12385216  0.09886275    -0.01400
C747        C  0.22214931  0.11906465  0.12988266     0.08500
C748        C  0.25651008  0.09516481  0.12401322    -0.01600
Br749      Br  0.29313906  0.08589281  0.16715768    -0.00200
Br750      Br  0.31540449  0.05308487  0.07737731    -0.00200
Br751      Br  0.14429224  0.15160925  0.10824039    -0.00200
Br752      Br  0.16918719  0.12649845  0.01731536    -0.00200
C753        C  0.59716513  0.87722973  0.89695520    -0.01300
C754        C  0.59637170  0.85728083  0.93375907     0.08400
C755        C  0.61335288  0.81794740  0.93698340    -0.01400
C756        C  0.62915023  0.79856510  0.90372559    -0.01400
C757        C  0.62907410  0.81805845  0.86698788     0.08500
C758        C  0.61395573  0.85777285  0.86367835    -0.01600
Br759      Br  0.61631562  0.88509075  0.81365769    -0.00200
Br760      Br  0.57434695  0.93059066  0.89202172    -0.00200
Br761      Br  0.64848989  0.74345595  0.90776942    -0.00200
Br762      Br  0.61324619  0.78819065  0.98605868    -0.00200
C763        C  0.56855618  0.86593023  0.10533403    -0.01300
C764        C  0.59337990  0.86914233  0.07167562     0.08400
C765        C  0.63375653  0.85635753  0.07555560    -0.01400
C766        C  0.64729456  0.83678431  0.11010967    -0.01400
C767        C  0.62100396  0.82948310  0.14126684     0.08500
C768        C  0.58211003  0.84555861  0.13960191    -0.01600
Br769      Br  0.54637332  0.83628680  0.18291849    -0.00200
Br770      Br  0.51512024  0.88801847  0.10448079    -0.00200
Br771      Br  0.70198000  0.81787602  0.11449595    -0.00200
Br772      Br  0.67115610  0.86134584  0.03361873    -0.00200
C773        C  0.91832575  0.30740263  0.97258437    -0.01300
C774        C  0.92576529  0.26738556  0.96058044     0.08400
C775        C  0.93256461  0.23804388  0.99019896    -0.01400
C776        C  0.93779071  0.24925276  0.03020819    -0.01400
C777        C  0.93371298  0.28989476  0.04231642     0.08500
C778        C  0.92392322  0.31914058  0.01250461    -0.01600
Br779      Br  0.91798923  0.37595890  0.02403136    -0.00200
Br780      Br  0.89521554  0.34522087  0.93561995    -0.00200
Br781      Br  0.95018328  0.20807545  0.06814777    -0.00200
Br782      Br  0.92803484  0.18166453  0.97701597    -0.00200
C783        C  0.81966279  0.24720873  0.91032296    -0.01300
C784        C  0.85417448  0.26289790  0.89258157     0.08400
C785        C  0.84923307  0.28823242  0.85919000    -0.01400
C786        C  0.81142833  0.29355436  0.84144559    -0.01400
C787        C  0.77855392  0.27126490  0.85468689     0.08500
C788        C  0.78180263  0.25176288  0.89173813    -0.01600
Br789      Br  0.73530351  0.22960365  0.91633883    -0.00200
Br790      Br  0.82504184  0.21531365  0.95745716    -0.00200
Br791      Br  0.80474946  0.33004084  0.79738615    -0.00200
Br792      Br  0.89492322  0.30996356  0.83275336    -0.00200
C793        C  0.01474906  0.28500190  0.88714879    -0.01300
C794        C  0.00189750  0.24806124  0.90358862     0.08400
C795        C  0.03042146  0.21627869  0.90677869    -0.01400
C796        C  0.06803077  0.21919387  0.88850033    -0.01400
C797        C  0.07721617  0.25354140  0.86591957     0.08500
C798        C  0.05186193  0.28747278  0.86792530    -0.01600
Br799      Br  0.06775023  0.33698594  0.84262266    -0.00200
Br800      Br  0.98093470  0.33168275  0.88682287    -0.00200
Br801      Br  0.10494580  0.17411416  0.89081744    -0.00200
Br802      Br  0.01672127  0.16635302  0.93203047    -0.00200
C803        C  0.92370256  0.62873078  0.01394526    -0.01300
C804        C  0.92978221  0.65988002  0.04243564     0.08400
C805        C  0.94174242  0.69809200  0.02867688    -0.01400
C806        C  0.94435860  0.70600893  0.98781295    -0.01400
C807        C  0.93984164  0.67461083  0.95968571     0.08500
C808        C  0.92815154  0.63636284  0.97314004    -0.01600
Br809      Br  0.91520928  0.59496050  0.93543131    -0.00200
Br810      Br  0.91256291  0.57406927  0.02981482    -0.00200
Br811      Br  0.94744170  0.76149169  0.97070017    -0.00200
Br812      Br  0.95800846  0.73926050  0.06507786    -0.00200
C813        C  0.81633264  0.64711263  0.09994667    -0.01300
C814        C  0.85398604  0.66451107  0.10743988     0.08400
C815        C  0.85571422  0.69809253  0.13342734    -0.01400
C816        C  0.82148114  0.71092287  0.15403939    -0.01400
C817        C  0.78605122  0.68856112  0.15185769     0.08500
C818        C  0.78282533  0.65804655  0.12282527    -0.01600
Br819      Br  0.73379799  0.62868489  0.11628945    -0.00200
Br820      Br  0.81158674  0.60614480  0.05978338    -0.00200
Br821      Br  0.82250092  0.76020630  0.18444467    -0.00200
Br822      Br  0.90485736  0.72477246  0.14532765    -0.00200
C823        C  0.02681721  0.64489248  0.09381325    -0.01300
C824        C  0.99267016  0.64362485  0.11802738     0.08400
C825        C  0.99624814  0.65505535  0.15842554    -0.01400
C826        C  0.03270021  0.66897908  0.17338870    -0.01400
C827        C  0.06646662  0.66988886  0.14925031     0.08500
C828        C  0.06367262  0.65812394  0.10948256    -0.01600
Br829      Br  0.11038050  0.66048010  0.07688468    -0.00200
Br830      Br  0.02440716  0.62547470  0.04029260    -0.00200
Br831      Br  0.03685390  0.68659468  0.22786846    -0.00200
Br832      Br  0.95287228  0.64993547  0.19551040    -0.00200
C833        C  0.95779568  0.96356055  0.70544612    -0.01300
C834        C  0.97684925  0.98115978  0.67254193     0.08400
C835        C  0.95357201  0.98764032  0.63806056    -0.01400
C836        C  0.91176847  0.98318196  0.63860448    -0.01400
C837        C  0.89189077  0.97283771  0.67382556     0.08500
C838        C  0.91563450  0.95953812  0.70612718    -0.01600
Br839      Br  0.89137254  0.93286003  0.75024007    -0.00200
Br840      Br  0.98890315  0.94201258  0.74863363    -0.00200
Br841      Br  0.88282878  0.98495487  0.58918928    -0.00200
Br842      Br  0.97916968  0.99705221  0.58815986    -0.00200
C843        C  0.07280495  0.84903622  0.67164935    -0.01300
C844        C  0.10144806  0.85132136  0.70246231     0.08400
C845        C  0.10541083  0.88808858  0.72344924    -0.01400
C846        C  0.08293997  0.92243718  0.71235579    -0.01400
C847        C  0.05605776  0.92078010  0.68006405     0.08500
C848        C  0.05033495  0.88365884  0.66053431    -0.01600
Br849      Br  0.01317334  0.88134529  0.61693271    -0.00200
Br850      Br  0.06426983  0.79865271  0.64444941    -0.00200
Br851      Br  0.09242440  0.97331034  0.73890843    -0.00200
Br852      Br  0.14492935  0.89341178  0.76485425    -0.00200
C853        C  0.03060891  0.07533242  0.71371260    -0.01300
C854        C  0.02804681  0.06649843  0.67297529     0.08400
C855        C  0.03734787  0.09817280  0.64647876    -0.01400
C856        C  0.05957136  0.13169924  0.65955878    -0.01400
C857        C  0.07027255  0.13498225  0.69955512     0.08500
C858        C  0.05282187  0.10882621  0.72700423    -0.01600
Br859      Br  0.06100537  0.11816432  0.78268239    -0.00200
Br860      Br  0.00296518  0.04340297  0.75141570    -0.00200
Br861      Br  0.07820611  0.17132384  0.62254929    -0.00200
Br862      Br  0.02404914  0.09316671  0.59133232    -0.00200
C863        C  0.90876059  0.97404779  0.30413703    -0.01300
C864        C  0.89513526  0.96574975  0.34272207     0.08400
C865        C  0.92443692  0.96405842  0.37360730    -0.01400
C866        C  0.96550383  0.96644149  0.36497254    -0.01400
C867        C  0.97861639  0.97178387  0.32597292     0.08500
C868        C  0.94975018  0.97994099  0.29657381    -0.01600
Br869      Br  0.96499530  0.00531901  0.24805442    -0.00200
Br870      Br  0.87233713  0.97561547  0.26036304    -0.00200
Br871      Br  0.00408642  0.96763930  0.40756901    -0.00200
Br872      Br  0.91062287  0.96006439  0.42863136    -0.00200
C873        C  0.81002289  0.83647247  0.31197747    -0.01300
C874        C  0.76798363  0.83456077  0.31611069     0.08400
C875        C  0.74903632  0.86388699  0.33982294    -0.01400
C876        C  0.77023300  0.89702670  0.35503089    -0.01400
C877        C  0.81272651  0.89921194  0.35130437     0.08500
C878        C  0.83217880  0.86816661  0.32988226    -0.01600
Br879      Br  0.88951491  0.86807509  0.32572686    -0.00200
Br880      Br  0.83807266  0.79569323  0.28237206    -0.00200
Br881      Br  0.73773710  0.93988221  0.37794817    -0.00200
Br882      Br  0.69396669  0.85694815  0.35544781    -0.00200
C883        C  0.79964242  0.03193270  0.31314905    -0.01300
C884        C  0.82396382  0.03478682  0.34735914     0.08400
C885        C  0.83033900  0.07319750  0.36446515    -0.01400
C886        C  0.81039505  0.10766871  0.34926604    -0.01400
C887        C  0.78689058  0.10451940  0.31463783     0.08500
C888        C  0.78433444  0.06694704  0.29521993    -0.01600
Br889      Br  0.75968538  0.06299084  0.24355238    -0.00200
Br890      Br  0.77993954  0.98089201  0.29391837    -0.00200
Br891      Br  0.81222209  0.15782095  0.37823814    -0.00200
Br892      Br  0.86481187  0.07821834  0.41005177    -0.00200
C893        C  0.63380078  0.95233870  0.98353330    -0.01300
C894        C  0.59788452  0.93606055  0.99814347     0.08400
C895        C  0.56673625  0.96367184  0.00761470    -0.01400
C896        C  0.57356020  0.00564618  0.00818558    -0.01400
C897        C  0.61172632  0.02138224  0.00058364     0.08500
C898        C  0.64110571  0.99443092  0.98573296    -0.01600
Br899      Br  0.69056914  0.01409889  0.96526157    -0.00200
Br900      Br  0.67094007  0.91873865  0.95498341    -0.00200
Br901      Br  0.52852271  0.04186608  0.01246573    -0.00200
Br902      Br  0.51256589  0.94548209  0.01393900    -0.00200
C903        C  0.66568363  0.10230655  0.92184441    -0.01300
C904        C  0.62848698  0.08470625  0.93065853     0.08400
C905        C  0.60147369  0.07646047  0.89956679    -0.01400
C906        C  0.60866756  0.09173939  0.86142560    -0.01400
C907        C  0.64375073  0.11346122  0.85433547     0.08500
C908        C  0.67401057  0.11414693  0.88316487    -0.01600
Br909      Br  0.72612197  0.13386424  0.86964935    -0.00200
Br910      Br  0.70229151  0.11791146  0.96346263    -0.00200
Br911      Br  0.56934307  0.08617468  0.82011539    -0.00200
Br912      Br  0.55248243  0.04902268  0.91027821    -0.00200
C913        C  0.67225538  0.09500457  0.12591190    -0.01300
C914        C  0.64502216  0.11589737  0.14977727     0.08400
C915        C  0.60415800  0.11430180  0.14103600    -0.01400
C916        C  0.59110005  0.09698917  0.10530431    -0.01400
C917        C  0.61909832  0.08169246  0.07761273     0.08500
C918        C  0.65932737  0.07751968  0.09010433    -0.01600
Br919      Br  0.69848541  0.05330931  0.05664110    -0.00200
Br920      Br  0.72785766  0.09364383  0.14099424    -0.00200
Br921      Br  0.53524093  0.10103525  0.09224289    -0.00200
Br922      Br  0.56665234  0.14017287  0.17619203    -0.00200
C923        C  0.23288513  0.95586829  0.00043401    -0.01300
C924        C  0.27067731  0.93687102  0.99717725     0.08400
C925        C  0.30461777  0.96227068  0.99308710    -0.01400
C926        C  0.29987793  0.00423297  0.98721419    -0.01400
C927        C  0.26193749  0.02265893  0.98892642     0.08500
C928        C  0.22887650  0.99842523  0.99823914    -0.01600
Br929      Br  0.17754898  0.02300872  0.00726245    -0.00200
Br930      Br  0.18586474  0.92430776  0.00749593    -0.00200
Br931      Br  0.34636439  0.03720176  0.97977992    -0.00200
Br932      Br  0.35857222  0.94176346  0.99716699    -0.00200
C933        C  0.25200086  0.85783337  0.86916973    -0.01300
C934        C  0.24723987  0.81574146  0.86741216     0.08400
C935        C  0.25842953  0.79186358  0.89989779    -0.01400
C936        C  0.27458802  0.80969886  0.93414785    -0.01400
C937        C  0.27958436  0.85263593  0.93646911     0.08500
C938        C  0.26857405  0.87620555  0.90319364    -0.01600
Br939      Br  0.27975407  0.93306096  0.90163775    -0.00200
Br940      Br  0.23744890  0.88996304  0.82391614    -0.00200
Br941      Br  0.28913212  0.77288970  0.97665393    -0.00200
Br942      Br  0.25100278  0.73386732  0.89721245    -0.00200
C943        C  0.27183658  0.87660955  0.10747563    -0.01300
C944        C  0.25959995  0.86773927  0.06852324     0.08400
C945        C  0.22744562  0.84076009  0.06248864    -0.01400
C946        C  0.21009704  0.82085184  0.09472511    -0.01400
C947        C  0.22542900  0.82656045  0.13324288     0.08500
C948        C  0.25521683  0.85582754  0.13966818    -0.01600
Br949      Br  0.27374756  0.86714673  0.19255491    -0.00200
Br950      Br  0.31316361  0.91590624  0.11627167    -0.00200
Br951      Br  0.16812653  0.78210708  0.08492124    -0.00200
Br952      Br  0.20911391  0.82643706  0.01025082    -0.00200
loop_ 
_geom_bond_atom_site_label_1 
_geom_bond_atom_site_label_2 
_geom_bond_distance 
_geom_bond_site_symmetry_2 
_ccdc_geom_bond_type 
N1            C5   1.373       .  A
N1            C2   1.363   1_556  A
N1          C924   1.466       .  S
C2            C3   1.380       .  A
C2          C944   1.492       .  S
C3            C4   1.367   1_554  A
C3            H6   1.082       .  S
C4            C5   1.385       .  A
C4            H7   1.083       .  S
C5          C937   1.510       .  S
N8           C12   1.368   1_554  A
N8            C9   1.377       .  A
N8          C897   1.460       .  S
C9           C10   1.383       .  A
C9          C917   1.496       .  S
C10          C11   1.358   1_554  A
C10          H13   1.083       .  S
C11          C12   1.378       .  A
C11          H14   1.083       .  S
C12         C904   1.478       .  S
N15          C19   1.374       .  A
N15          C16   1.361       .  A
N15         C864   1.468       .  S
C16          C17   1.378       .  A
C16         C884   1.490   1_565  S
C17          C18   1.370       .  A
C17          H20   1.082   1_565  S
C18          C19   1.387       .  A
C18          H21   1.083       .  S
C19         C877   1.519       .  S
N22          C26   1.373       .  A
N22          C23   1.378   1_565  A
N22         C834   1.462   1_455  S
C23          C24   1.385       .  A
C23         C854   1.506       .  S
C24          C25   1.357   1_545  A
C24          H27   1.083       .  S
C25          C26   1.378       .  A
C25          H28   1.083       .  S
C26         C847   1.488       .  S
N29          C33   1.370       .  A
N29          C30   1.368       .  A
N29         C804   1.463       .  S
C30          C31   1.383       .  A
C30         C824   1.492       .  S
C31          C32   1.365       .  A
C31          H34   1.083       .  S
C32          C33   1.382       .  A
C32          H35   1.083       .  S
C33         C814   1.500       .  S
N36          C40   1.377       .  A
N36          C37   1.375       .  A
N36         C774   1.460       .  S
C37          C38   1.381       .  A
C37         C784   1.498       .  S
C38          C39   1.363       .  A
C38          H41   1.083       .  S
C39          C40   1.380       .  A
C39          H42   1.083       .  S
C40         C794   1.506   1_655  S
N43          C47   1.372   1_556  A
N43          C44   1.368       .  A
N43         C894   1.463       .  S
C44          C45   1.383       .  A
C44         C754   1.493       .  S
C45          C46   1.366   1_556  A
C45          H48   1.083       .  S
C46          C47   1.384       .  A
C46          H49   1.082       .  S
C47         C764   1.508       .  S
N50          C54   1.370   1_556  A
N50          C51   1.375       .  A
N50         C927   1.454       .  S
C51          C52   1.386       .  A
C51         C737   1.502       .  S
C52          C53   1.358       .  A
C52          H55   1.083       .  S
C53          C54   1.378   1_556  A
C53          H56   1.083   1_556  S
C54         C744   1.485       .  S
N57          C61   1.370       .  A
N57          C58   1.374   1_565  A
N57         C837   1.462       .  S
C58          C59   1.384   1_545  A
C58         C724   1.502       .  S
C59          C60   1.356       .  A
C59          H62   1.082   1_565  S
C60          C61   1.380       .  A
C60          H63   1.083       .  S
C61         C714   1.483       .  S
N64          C68   1.374       .  A
N64          C65   1.370       .  A
N64         C867   1.456   1_455  S
C65          C66   1.381       .  A
C65         C704   1.485   1_565  S
C66          C67   1.360       .  A
C66          H69   1.083   1_565  S
C67          C68   1.381       .  A
C67          H70   1.083       .  S
C68         C697   1.496       .  S
N71          C75   1.374       .  A
N71          C72   1.366       .  A
N71         C807   1.456       .  S
C72          C73   1.380       .  A
C72         C674   1.489       .  S
C73          C74   1.364       .  A
C73          H76   1.083       .  S
C74          C75   1.382       .  A
C74          H77   1.083       .  S
C75         C684   1.500   1_655  S
N78          C82   1.368       .  A
N78          C79   1.374       .  A
N78         C777   1.470       .  S
C79          C80   1.386       .  A
C79         C657   1.517       .  S
C80          C81   1.368       .  A
C80          H83   1.083       .  S
C81          C82   1.381       .  A
C81          H84   1.083       .  S
C82         C664   1.505   1_655  S
N85          C89   1.359       .  A
N85          C86   1.370       .  A
N85         C624   1.455       .  S
C86          C87   1.387       .  A
C86         C647   1.516       .  S
C87          C88   1.373       .  A
C87          H90   1.081       .  S
C88          C89   1.379       .  A
C88          H91   1.082       .  S
C89         C634   1.493       .  S
N92          C96   1.368       .  A
N92          C93   1.371       .  A
N92         C594   1.451       .  S
C93          C94   1.381       .  A
C93         C614   1.498       .  S
C94          C95   1.365       .  A
C94          H97   1.083       .  S
C95          C96   1.382       .  A
C95          H98   1.083       .  S
C96         C604   1.491       .  S
N99         C103   1.369       .  A
N99         C100   1.371       .  A
N99         C564   1.450       .  S
C100        C101   1.382       .  A
C100        C574   1.497       .  S
C101        C102   1.365       .  A
C101        H104   1.083       .  S
C102        C103   1.376       .  A
C102        H105   1.079       .  S
C103        C584   1.497       .  S
O106        C122   1.275       .  A
O106       Zn112   2.032       .  S
C107        C557   1.498       .  S
C107        O123   1.276       .  A
C107        O120   1.279       .  A
O108        C121   1.278       .  A
O108       Cd115   2.096       .  S
O109        C127   1.277       .  A
O109       Cd118   2.086       .  S
O110        C124   1.275       .  A
O110       Cd114   2.061       .  S
O111        C122   1.277       .  A
O111       Cd114   2.094       .  S
Zn112       O123   2.030       .  S
Zn112       O125   2.005       .  S
Zn112       O117   1.939       .  S
O113        C124   1.277       .  A
O113       Cd118   2.089       .  S
Cd114       O116   2.091       .  S
Cd114       O117   2.006       .  S
Cd115       O119   2.083       .  S
Cd115       O128   2.087       .  S
Cd115       O117   2.016       .  S
O116        C126   1.276       .  A
O117       Cd118   2.016       .  S
Cd118       O120   2.109       .  S
O119        C126   1.278       .  A
C121        C587   1.488       .  S
C121        O125   1.273       .  A
C122        C637   1.483       .  S
C124        C734   1.472       .  S
C126        C797   1.489       .  S
C127        C857   1.480       .  S
C127        O128   1.275       .  A
N129        C133   1.361       .  A
N129        C130   1.373       .  A
N129        C524   1.468       .  S
C130        C131   1.386       .  A
C130        C544   1.505       .  S
C131        C132   1.366       .  A
C131        H134   1.083       .  S
C132        C133   1.379       .  A
C132        H135   1.083       .  S
C133        C537   1.487       .  S
N136        C140   1.369       .  A
N136        C137   1.376       .  A
N136        C504   1.462       .  S
C137        C138   1.384       .  A
C137        C554   1.505       .  S
C138        C139   1.359       .  A
C138        H141   1.083       .  S
C139        C140   1.379       .  A
C139        H142   1.083       .  S
C140        C514   1.488       .  S
O143        C159   1.272       .  A
O143       Zn149   2.011       .  S
C144        C494   1.493       .  S
C144        O160   1.271       .  A
C144        O157   1.280       .  A
O145        C158   1.277       .  A
O145       Cd152   2.090       .  S
O146        C164   1.280       .  A
O146       Cd155   2.121       .  S
O147        C161   1.274       .  A
O147       Cd151   2.082       .  S
O148        C159   1.278       .  A
O148       Cd151   2.103       .  S
Zn149       O160   1.983       .  S
Zn149       O162   2.010       .  S
Zn149       O154   1.936       .  S
O150        C161   1.277       .  A
O150       Cd155   2.069       .  S
Cd151       O153   2.080       .  S
Cd151       O154   2.023       .  S
Cd152       O156   2.077       .  S
Cd152       O165   2.073       .  S
Cd152       O154   1.995       .  S
O153        C163   1.277       .  A
O154       Cd155   2.014       .  S
Cd155       O157   2.111       .  S
O156        C163   1.275       .  A
C158        C547   1.476       .  S
C158        O162   1.271       .  A
C159        C517   1.483       .  S
C161        C907   1.475       .  S
C163        C727   1.476       .  S
C164        C787   1.502       .  S
C164        O165   1.277       .  A
N166        C170   1.379       .  A
N166        C167   1.373       .  A
N166        C567   1.464       .  S
C167        C168   1.377       .  A
C167        C484   1.485       .  S
C168        C169   1.356       .  A
C168        H171   1.083       .  S
C169        C170   1.384       .  A
C169        H172   1.083       .  S
C170        C474   1.505       .  S
O173        C189   1.275       .  A
O173       Zn179   2.042       .  S
C174        C844   1.498       .  S
C174        O190   1.275       .  A
C174        O187   1.283       .  A
O175        C188   1.279       .  A
O175       Cd182   2.110       .  S
O176        C194   1.279       .  A
O176       Cd185   2.088       .  S
O177        C191   1.276       .  A
O177       Cd181   2.079       .  S
O178        C189   1.273       .  A
O178       Cd181   2.067       .  S
Zn179       O190   2.020       .  S
Zn179       O192   2.007       .  S
Zn179       O184   1.949       .  S
O180        C191   1.279       .  A
O180       Cd185   2.113       .  S
Cd181       O183   2.090       .  S
Cd181       O184   2.006       .  S
Cd182       O186   2.061       .  S
Cd182       O195   2.092       .  S
Cd182       O184   2.019       .  S
O183        C193   1.276       .  A
O184       Cd185   2.014       .  S
Cd185       O187   2.123       .  S
O186        C193   1.273       .  A
C188        C687   1.501       .  S
C188        O192   1.273       .  A
C189        C934   1.480       .  S
C191        C467   1.520       .  S
C193        C644   1.492       .  S
C194        C487   1.496       .  S
C194        O195   1.277       .  A
N196        C200   1.372       .  A
N196        C197   1.367       .  A
N196        C627   1.456       .  S
C197        C198   1.379       .  A
C197        C457   1.484       .  S
C198        C199   1.361       .  A
C198        H201   1.083       .  S
C199        C200   1.383       .  A
C199        H202   1.083       .  S
C200        C497   1.500       .  S
N203        C207   1.369       .  A
N203        C204   1.380       .  A
N203        C434   1.478       .  S
C204        C205   1.374       .  A
C204        C464   1.500       .  S
C205        C206   1.360       .  A
C205        H208   1.083       .  S
C206        C207   1.388       .  A
C206        H209   1.082       .  S
C207        C444   1.504       .  S
N210        C214   1.380       .  A
N210        C211   1.375       .  A
N210        C527   1.462       .  S
C211        C212   1.378       .  A
C211        C424   1.488       .  S
C212        C213   1.355       .  A
C212        H215   1.083       .  S
C213        C214   1.383       .  A
C213        H216   1.083       .  S
C214        C414   1.507       .  S
O217        C233   1.272       .  A
O217       Zn223   2.008       .  S
C218        C757   1.477       .  S
C218        O234   1.274       .  A
C218        O231   1.276       .  A
O219        C232   1.277       .  A
O219       Cd226   2.092       .  S
O220        C238   1.275       .  A
O220       Cd229   2.092       .  S
O221        C235   1.276       .  A
O221       Cd225   2.079       .  S
O222        C233   1.276       .  A
O222       Cd225   2.089       .  S
Zn223       O234   2.018       .  S
Zn223       O236   1.999       .  S
Zn223       O228   1.941       .  S
O224        C235   1.276       .  A
O224       Cd229   2.074       .  S
Cd225       O227   2.074       .  S
Cd225       O228   2.009       .  S
Cd226       O230   2.096       .  S
Cd226       O239   2.073       .  S
Cd226       O228   2.009       .  S
O227        C237   1.276       .  A
O228       Cd229   2.012       .  S
Cd229       O231   2.087       .  S
O230        C237   1.277       .  A
C232        C677   1.480       .  S
C232        O236   1.272       .  A
C233        C717   1.486       .  S
C235        C447   1.480       .  S
C237        C417   1.481       .  S
C238        C454   1.500       .  S
C238        O239   1.277       .  A
N240        C244   1.362       .  A
N240        C241   1.370       .  A
N240        C507   1.462       .  S
C241        C242   1.386       .  A
C241        C404   1.511       .  S
C242        C243   1.372       .  A
C242        H245   1.082       .  S
C243        C244   1.379       .  A
C243        H246   1.082       .  S
C244        C394   1.492       .  S
O247        C263   1.272       .  A
O247       Zn253   2.001       .  S
C248        C397   1.479       .  S
C248        O264   1.273       .  A
C248        O261   1.273       .  A
O249        C262   1.279       .  A
O249       Cd256   2.095       .  S
O250        C268   1.273       .  A
O250       Cd259   2.052       .  S
O251        C265   1.278       .  A
O251       Cd255   2.081       .  S
O252        C263   1.277       .  A
O252       Cd255   2.092       .  S
Zn253       O264   2.020       .  S
Zn253       O266   1.996       .  S
Zn253       O258   1.944       .  S
O254        C265   1.274       .  A
O254       Cd259   2.069       .  S
Cd255       O257   2.101       .  S
Cd255       O258   2.012       .  S
Cd256       O260   2.076       .  S
Cd256       O269   2.093       .  S
Cd256       O258   2.009       .  S
O257        C267   1.278       .  A
O258       Cd259   1.999       .  S
Cd259       O261   2.071       .  S
O260        C267   1.276       .  A
C262        C534   1.480       .  S
C262        O266   1.271       .  A
C263        C384   1.483       .  S
C265        C914   1.472       .  S
C267        C654   1.504       .  S
C268        C887   1.485       .  S
C268        O269   1.276       .  A
N270        C274   1.370       .  A
N270        C271   1.379       .  A
N270        C437   1.480       .  S
C271        C272   1.375       .  A
C271        C374   1.498       .  S
C272        C273   1.359       .  A
C272        H275   1.083       .  S
C273        C274   1.387       .  A
C273        H276   1.082       .  S
C274        C364   1.505       .  S
N277        C281   1.365       .  A
N277        C278   1.367       .  A
N277        C597   1.460       .  S
C278        C279   1.385       .  A
C278        C354   1.501       .  S
C279        C280   1.370       .  A
C279        H282   1.083       .  S
C280        C281   1.381       .  A
C280        H283   1.082       .  S
C281        C387   1.495       .  S
O284        C300   1.274       .  A
O284       Zn290   2.019       .  S
C285        C377   1.489       .  S
C285        O301   1.277       .  A
C285        O298   1.279       .  A
O286        C299   1.274       .  A
O286       Cd293   2.068       .  S
O287        C305   1.277       .  A
O287       Cd296   2.098       .  S
O288        C302   1.279       .  A
O288       Cd292   2.112       .  S
O289        C300   1.282       .  A
O289       Cd292   2.119       .  S
Zn290       O301   2.039       .  S
Zn290       O303   2.032       .  S
Zn290       O295   1.960       .  S
O291        C302   1.280       .  A
O291       Cd296   2.088       .  S
Cd292       O294   2.117       .  S
Cd292       O295   2.028       .  S
Cd293       O297   2.073       .  S
Cd293       O306   2.066       .  S
Cd293       O295   2.002       .  S
O294        C304   1.284       .  A
O295       Cd296   2.010       .  S
Cd296       O298   2.104       .  S
O297        C304   1.274       .  A
C299        C357   1.476       .  S
C299        O303   1.274       .  A
C300        C427   1.506       .  S
C302        C874   1.507       .  S
C304        C817   1.495       .  S
C305        C767   1.481       .  S
C305        O306   1.275       .  A
O307        C323   1.273       .  A
O307       Zn313   2.003       .  S
C308        C694   1.504       .  S
C308        O324   1.273       .  A
C308        O321   1.271       .  A
O309        C322   1.276       .  A
O309       Cd316   2.081       .  S
O310        C328   1.274       .  A
O310       Cd319   2.071       .  S
O311        C325   1.276       .  A
O311       Cd315   2.098       .  S
O312        C323   1.277       .  A
O312       Cd315   2.079       .  S
Zn313       O324   2.026       .  S
Zn313       O326   2.025       .  S
Zn313       O318   1.945       .  S
O314        C325   1.273       .  A
O314       Cd319   2.059       .  S
Cd315       O317   2.088       .  S
Cd315       O318   2.011       .  S
Cd316       O320   2.080       .  S
Cd316       O329   2.062       .  S
Cd316       O318   1.998       .  S
O317        C327   1.278       .  A
O318       Cd319   2.001       .  S
Cd319       O321   2.067       .  S
O320        C327   1.275       .  A
C322        C947   1.488       .  S
C322        O326   1.275       .  A
C323        C827   1.469       .  S
C325        C477   1.477       .  S
C327        C617   1.492       .  S
C328        C367   1.469       .  S
C328        O329   1.275       .  A
O330        C346   1.277       .  A
O330       Zn336   2.049       .  S
C331        C607   1.495       .  S
C331        O347   1.277       .  A
C331        O344   1.276       .  A
O332        C345   1.281       .  A
O332       Cd339   2.109       .  S
O333        C351   1.276       .  A
O333       Cd342   2.100       .  S
O334        C348   1.275       .  A
O334       Cd338   2.092       .  S
O335        C346   1.277       .  A
O335       Cd338   2.091       .  S
Zn336       O347   2.033       .  S
Zn336       O349   2.025       .  S
Zn336       O341   1.956       .  S
O337        C348   1.273       .  A
O337       Cd342   2.053       .  S
Cd338       O340   2.059       .  S
Cd338       O341   2.009       .  S
Cd339       O343   2.100       .  S
Cd339       O352   2.095       .  S
Cd339       O341   2.020       .  S
O340        C350   1.276       .  A
O341       Cd342   2.006       .  S
Cd342       O344   2.081       .  S
O343        C350   1.278       .  A
C345        C577   1.497       .  S
C345        O349   1.275       .  A
C346        C407   1.487       .  S
C348        C747   1.480       .  S
C350        C707   1.484       .  S
C351        C667   1.504       .  S
C351        O352   1.279       .  A
C353        C354   1.430       .  A
C353        C358   1.405       .  A
C353       Br360   1.942       .  S
C354        C355   1.416       .  A
C355        C356   1.415       .  A
C355       Br362   1.927       .  S
C356        C357   1.407       .  A
C356       Br361   1.927       .  S
C357        C358   1.403       .  A
C358       Br359   1.939       .  S
C363        C364   1.424       .  A
C363        C368   1.406       .  A
C363       Br370   1.930       .  S
C364        C365   1.425       .  A
C365        C366   1.407       .  A
C365       Br372   1.935       .  S
C366        C367   1.401       .  A
C366       Br371   1.929       .  S
C367        C368   1.402       .  A
C368       Br369   1.931       .  S
C373        C374   1.419       .  A
C373        C378   1.410       .  A
C373       Br380   1.931       .  S
C374        C375   1.413       .  A
C375        C376   1.416       .  A
C375       Br382   1.928       .  S
C376        C377   1.412       .  A
C376       Br381   1.924       .  S
C377        C378   1.408       .  A
C378       Br379   1.934       .  S
C383        C384   1.410       .  A
C383        C388   1.408       .  A
C383       Br390   1.941       .  S
C384        C385   1.409       .  A
C385        C386   1.413       .  A
C385       Br392   1.929       .  S
C386        C387   1.414       .  A
C386       Br391   1.927       .  S
C387        C388   1.418       .  A
C388       Br389   1.920       .  S
C393        C394   1.418       .  A
C393        C398   1.407       .  A
C393       Br400   1.923       .  S
C394        C395   1.412       .  A
C395        C396   1.413       .  A
C395       Br402   1.927       .  S
C396        C397   1.410       .  A
C396       Br401   1.929       .  S
C397        C398   1.407       .  A
C398       Br399   1.938       .  S
C403        C404   1.415       .  A
C403        C408   1.418       .  A
C403       Br410   1.927       .  S
C404        C405   1.434       .  A
C405        C406   1.410       .  A
C405       Br412   1.943       .  S
C406        C407   1.403       .  A
C406       Br411   1.935       .  S
C407        C408   1.410       .  A
C408       Br409   1.926       .  S
C413        C414   1.416       .  A
C413        C418   1.415       .  A
C413       Br420   1.911       .  S
C414        C415   1.423       .  A
C415        C416   1.410       .  A
C415       Br422   1.927       .  S
C416        C417   1.403       .  A
C416       Br421   1.931       .  S
C417        C418   1.407       .  A
C418       Br419   1.931       .  S
C423        C424   1.409       .  A
C423        C428   1.417       .  A
C423       Br430   1.926       .  S
C424        C425   1.414       .  A
C425        C426   1.411       .  A
C425       Br432   1.940       .  S
C426        C427   1.423       .  A
C426       Br431   1.938       .  S
C427        C428   1.419       .  A
C428       Br429   1.930       .  S
C433        C434   1.404       .  A
C433        C438   1.412       .  A
C433       Br440   1.928       .  S
C434        C435   1.431       .  A
C435        C436   1.415       .  A
C435       Br442   1.922       .  S
C436        C437   1.411       .  A
C436       Br441   1.930       .  S
C437        C438   1.436       .  A
C438       Br439   1.921       .  S
C443        C444   1.417       .  A
C443        C448   1.408       .  A
C443       Br450   1.933       .  S
C444        C445   1.420       .  A
C445        C446   1.410       .  A
C445       Br452   1.935       .  S
C446        C447   1.410       .  A
C446       Br451   1.931       .  S
C447        C448   1.408       .  A
C448       Br449   1.930       .  S
C453        C454   1.421       .  A
C453        C458   1.415       .  A
C453       Br460   1.929       .  S
C454        C455   1.413       .  A
C455        C456   1.406       .  A
C455       Br462   1.934       .  S
C456        C457   1.414       .  A
C456       Br461   1.933       .  S
C457        C458   1.406       .  A
C458       Br459   1.926       .  S
C463        C464   1.410       .  A
C463        C468   1.410       .  A
C463       Br470   1.933       .  S
C464        C465   1.409       .  A
C465        C466   1.420       .  A
C465       Br472   1.931       .  S
C466        C467   1.430       .  A
C466       Br471   1.933       .  S
C467        C468   1.428       .  A
C468       Br469   1.939       .  S
C473        C474   1.418       .  A
C473        C478   1.412       .  A
C473       Br480   1.910       .  S
C474        C475   1.424       .  A
C475        C476   1.410       .  A
C475       Br482   1.930       .  S
C476        C477   1.402       .  A
C476       Br481   1.929       .  S
C477        C478   1.403       .  A
C478       Br479   1.932       .  S
C483        C484   1.416       .  A
C483        C488   1.406       .  A
C483       Br490   1.937       .  S
C484        C485   1.407       .  A
C485        C486   1.416       .  A
C485       Br492   1.926       .  S
C486        C487   1.418       .  A
C486       Br491   1.928       .  S
C487        C488   1.415       .  A
C488       Br489   1.936       .  S
C493        C494   1.417       .  A
C493        C498   1.409       .  A
C493       Br500   1.937       .  S
C494        C495   1.411       .  A
C495        C496   1.412       .  A
C495       Br502   1.931       .  S
C496        C497   1.413       .  A
C496       Br501   1.907       .  S
C497        C498   1.413       .  A
C498       Br499   1.926       .  S
C503        C504   1.411       .  A
C503        C508   1.417       .  A
C503       Br510   1.927       .  S
C504        C505   1.422       .  A
C505        C506   1.416       .  A
C505       Br512   1.928       .  S
C506        C507   1.407       .  A
C506       Br511   1.919       .  S
C507        C508   1.426       .  A
C508       Br509   1.930       .  S
C513        C514   1.417       .  A
C513        C518   1.409       .  A
C513       Br520   1.930       .  S
C514        C515   1.407       .  A
C515        C516   1.413       .  A
C515       Br522   1.925       .  S
C516        C517   1.412       .  A
C516       Br521   1.926       .  S
C517        C518   1.408       .  A
C518       Br519   1.932       .  S
C523        C524   1.429       .  A
C523        C528   1.414       .  A
C523       Br530   1.932       .  S
C524        C525   1.416       .  A
C525        C526   1.419       .  A
C525       Br532   1.917       .  S
C526        C527   1.415       .  A
C526       Br531   1.923       .  S
C527        C528   1.410       .  A
C528       Br529   1.928       .  S
C533        C534   1.410       .  A
C533        C538   1.407       .  A
C533       Br540   1.939       .  S
C534        C535   1.408       .  A
C535        C536   1.409       .  A
C535       Br542   1.922       .  S
C536        C537   1.409       .  A
C536       Br541   1.929       .  S
C537        C538   1.419       .  A
C538       Br539   1.928       .  S
C543        C544   1.433       .  A
C543        C548   1.402       .  A
C543       Br550   1.947       .  S
C544        C545   1.418       .  A
C545        C546   1.417       .  A
C545       Br552   1.924       .  S
C546        C547   1.405       .  A
C546       Br551   1.926       .  S
C547        C548   1.398       .  A
C548       Br549   1.930       .  S
C553        C554   1.413       .  A
C553        C558   1.416       .  A
C553       Br560   1.909       .  S
C554        C555   1.413       .  A
C555        C556   1.411       .  A
C555       Br562   1.926       .  S
C556        C557   1.413       .  A
C556       Br561   1.924       .  S
C557        C558   1.412       .  A
C558       Br559   1.929       .  S
C563        C564   1.402       .  A
C563        C568   1.414       .  A
C563       Br570   1.922       .  S
C564        C565   1.413       .  A
C565        C566   1.414       .  A
C565       Br572   1.937       .  S
C566        C567   1.420       .  A
C566       Br571   1.923       .  S
C567        C568   1.420       .  A
C568       Br569   1.921       .  S
C573        C574   1.411       .  A
C573        C578   1.416       .  A
C573       Br580   1.923       .  S
C574        C575   1.418       .  A
C575        C576   1.411       .  A
C575       Br582   1.927       .  S
C576        C577   1.411       .  A
C576       Br581   1.933       .  S
C577        C578   1.417       .  A
C578       Br579   1.933       .  S
C583        C584   1.413       .  A
C583        C588   1.412       .  A
C583       Br590   1.913       .  S
C584        C585   1.409       .  A
C585        C586   1.409       .  A
C585       Br592   1.916       .  S
C586        C587   1.412       .  A
C586       Br591   1.928       .  S
C587        C588   1.411       .  A
C588       Br589   1.931       .  S
C593        C594   1.414       .  A
C593        C598   1.411       .  A
C593       Br600   1.932       .  S
C594        C595   1.404       .  A
C595        C596   1.413       .  A
C595       Br602   1.922       .  S
C596        C597   1.427       .  A
C596       Br601   1.930       .  S
C597        C598   1.412       .  A
C598       Br599   1.917       .  S
C603        C604   1.415       .  A
C603        C608   1.408       .  A
C603       Br610   1.926       .  S
C604        C605   1.409       .  A
C605        C606   1.413       .  A
C605       Br612   1.921       .  S
C606        C607   1.415       .  A
C606       Br611   1.931       .  S
C607        C608   1.414       .  A
C608       Br609   1.933       .  S
C613        C614   1.411       .  A
C613        C618   1.412       .  A
C613       Br620   1.917       .  S
C614        C615   1.412       .  A
C615        C616   1.411       .  A
C615       Br622   1.910       .  S
C616        C617   1.408       .  A
C616       Br621   1.930       .  S
C617        C618   1.414       .  A
C618       Br619   1.926       .  S
C623        C624   1.404       .  A
C623        C628   1.415       .  A
C623       Br630   1.924       .  S
C624        C625   1.424       .  A
C625        C626   1.410       .  A
C625       Br632   1.930       .  S
C626        C627   1.409       .  A
C626       Br631   1.927       .  S
C627        C628   1.420       .  A
C628       Br629   1.924       .  S
C633        C634   1.414       .  A
C633        C638   1.405       .  A
C633       Br640   1.922       .  S
C634        C635   1.411       .  A
C635        C636   1.418       .  A
C635       Br642   1.926       .  S
C636        C637   1.411       .  A
C636       Br641   1.925       .  S
C637        C638   1.405       .  A
C638       Br639   1.933       .  S
C643        C644   1.410       .  A
C643        C648   1.414       .  A
C643       Br650   1.930       .  S
C644        C645   1.413       .  A
C645        C646   1.411       .  A
C645       Br652   1.945       .  S
C646        C647   1.433       .  A
C646       Br651   1.944       .  S
C647        C648   1.417       .  A
C648       Br649   1.922       .  S
C653        C654   1.416       .  A
C653        C658   1.418       .  A
C653       Br660   1.933       .  S
C654        C655   1.415       .  A
C655        C656   1.410       .  A
C655       Br662   1.938       .  S
C656        C657   1.432       .  A
C656       Br661   1.948       .  S
C657        C658   1.417       .  A
C658       Br659   1.923       .  S
C663        C664   1.420       .  A
C663        C668   1.413       .  A
C663       Br670   1.927   1_455  S
C664        C665   1.414       .  A
C665        C666   1.419       .  A
C665       Br672   1.931       .  S
C666        C667   1.416       .  A
C666       Br671   1.926       .  S
C667        C668   1.414       .  A
C668       Br669   1.938       .  S
C673        C674   1.410       .  A
C673        C678   1.412       .  A
C673       Br680   1.924       .  S
C674        C675   1.417       .  A
C675        C676   1.405       .  A
C675       Br682   1.925       .  S
C676        C677   1.407       .  A
C676       Br681   1.936       .  S
C677        C678   1.412       .  A
C678       Br679   1.926       .  S
C683        C684   1.414       .  A
C683        C688   1.415       .  A
C683       Br690   1.911   1_455  S
C684        C685   1.410       .  A
C685        C686   1.411       .  A
C685       Br692   1.919       .  S
C686        C687   1.418       .  A
C686       Br691   1.935       .  S
C687        C688   1.413       .  A
C688       Br689   1.930       .  S
C693        C694   1.417       .  A
C693        C698   1.411       .  A
C693       Br700   1.936       .  S
C694        C695   1.418       .  A
C695        C696   1.410       .  A
C695       Br702   1.936       .  S
C696        C697   1.414       .  A
C696       Br701   1.924       .  S
C697        C698   1.411       .  A
C698       Br699   1.912   1_455  S
C703        C704   1.415       .  A
C703        C708   1.405       .  A
C703       Br710   1.933       .  S
C704        C705   1.412       .  A
C705        C706   1.414       .  A
C705       Br712   1.921       .  S
C706        C707   1.408       .  A
C706       Br711   1.926       .  S
C707        C708   1.410       .  A
C708       Br709   1.935       .  S
C713        C714   1.415       .  A
C713        C718   1.405       .  A
C713       Br720   1.932       .  S
C714        C715   1.407       .  A
C715        C716   1.413       .  A
C715       Br722   1.927       .  S
C716        C717   1.414       .  A
C716       Br721   1.928       .  S
C717        C718   1.413       .  A
C718       Br719   1.939       .  S
C723        C724   1.417       .  A
C723        C728   1.405       .  A
C723       Br730   1.929       .  S
C724        C725   1.417       .  A
C725        C726   1.413       .  A
C725       Br732   1.913       .  S
C726        C727   1.406       .  A
C726       Br731   1.931       .  S
C727        C728   1.402       .  A
C728       Br729   1.920       .  S
C733        C734   1.402       .  A
C733        C738   1.408       .  A
C733       Br740   1.931       .  S
C734        C735   1.405       .  A
C735        C736   1.410       .  A
C735       Br742   1.929       .  S
C736        C737   1.414       .  A
C736       Br741   1.910       .  S
C737        C738   1.421       .  A
C738       Br739   1.926       .  S
C743        C744   1.413       .  A
C743        C748   1.413       .  A
C743       Br750   1.921       .  S
C744        C745   1.417       .  A
C745        C746   1.404       .  A
C745       Br752   1.937       .  S
C746        C747   1.408       .  A
C746       Br751   1.936       .  S
C747        C748   1.408       .  A
C748       Br749   1.926       .  S
C753        C754   1.413       .  A
C753        C758   1.417       .  A
C753       Br760   1.927       .  S
C754        C755   1.421       .  A
C755        C756   1.402       .  A
C755       Br762   1.935       .  S
C756        C757   1.404       .  A
C756       Br761   1.937       .  S
C757        C758   1.410       .  A
C758       Br759   1.926       .  S
C763        C764   1.422       .  A
C763        C768   1.414       .  A
C763       Br770   1.930       .  S
C764        C765   1.420       .  A
C765        C766   1.410       .  A
C765       Br772   1.912       .  S
C766        C767   1.404       .  A
C766       Br771   1.938       .  S
C767        C768   1.405       .  A
C768       Br769   1.929       .  S
C773        C774   1.407       .  A
C773        C778   1.419   1_556  A
C773       Br780   1.927       .  S
C774        C775   1.414       .  A
C775        C776   1.415   1_556  A
C775       Br782   1.926       .  S
C776        C777   1.412       .  A
C776       Br781   1.917       .  S
C777        C778   1.435       .  A
C778       Br779   1.930       .  S
C783        C784   1.412       .  A
C783        C788   1.420       .  A
C783       Br790   1.923       .  S
C784        C785   1.418       .  A
C785        C786   1.409       .  A
C785       Br792   1.926       .  S
C786        C787   1.409       .  A
C786       Br791   1.933       .  S
C787        C788   1.416       .  A
C788       Br789   1.925       .  S
C793        C794   1.417       .  A
C793        C798   1.413       .  A
C793       Br800   1.910   1_455  S
C794        C795   1.420       .  A
C795        C796   1.414       .  A
C795       Br802   1.924       .  S
C796        C797   1.410       .  A
C796       Br801   1.933       .  S
C797        C798   1.405       .  A
C798       Br799   1.932       .  S
C803        C804   1.427       .  A
C803        C808   1.416   1_554  A
C803       Br810   1.930       .  S
C804        C805   1.412       .  A
C805        C806   1.414   1_554  A
C805       Br812   1.917       .  S
C806        C807   1.418       .  A
C806       Br811   1.932       .  S
C807        C808   1.407       .  A
C808       Br809   1.923       .  S
C813        C814   1.413       .  A
C813        C818   1.415       .  A
C813       Br820   1.927       .  S
C814        C815   1.419       .  A
C815        C816   1.411       .  A
C815       Br822   1.916       .  S
C816        C817   1.406       .  A
C816       Br821   1.929       .  S
C817        C818   1.414       .  A
C818       Br819   1.928       .  S
C823        C824   1.415   1_455  A
C823        C828   1.414       .  A
C823       Br830   1.925       .  S
C824        C825   1.425       .  A
C825        C826   1.401   1_655  A
C825       Br832   1.939       .  S
C826        C827   1.403       .  A
C826       Br831   1.940       .  S
C827        C828   1.405       .  A
C828       Br829   1.926       .  S
C833        C834   1.418       .  A
C833        C838   1.422       .  A
C833       Br840   1.925       .  S
C834        C835   1.416       .  A
C835        C836   1.411       .  A
C835       Br842   1.930       .  S
C836        C837   1.416       .  A
C836       Br841   1.930       .  S
C837        C838   1.417       .  A
C838       Br839   1.927       .  S
C843        C844   1.416       .  A
C843        C848   1.417       .  A
C843       Br850   1.927       .  S
C844        C845   1.416       .  A
C845        C846   1.409       .  A
C845       Br852   1.931       .  S
C846        C847   1.414       .  A
C846       Br851   1.936       .  S
C847        C848   1.409       .  A
C848       Br849   1.927       .  S
C853        C854   1.413       .  A
C853        C858   1.412       .  A
C853       Br860   1.911       .  S
C854        C855   1.420       .  A
C855        C856   1.411       .  A
C855       Br862   1.925       .  S
C856        C857   1.404       .  A
C856       Br861   1.928       .  S
C857        C858   1.407       .  A
C858       Br859   1.930       .  S
C863        C864   1.417       .  A
C863        C868   1.415       .  A
C863       Br870   1.915       .  S
C864        C865   1.431       .  A
C865        C866   1.413       .  A
C865       Br872   1.931       .  S
C866        C867   1.409       .  A
C866       Br871   1.931   1_655  S
C867        C868   1.409       .  A
C868       Br869   1.923   1_565  S
C873        C874   1.420       .  A
C873        C878   1.423       .  A
C873       Br880   1.925       .  S
C874        C875   1.410       .  A
C875        C876   1.407       .  A
C875       Br882   1.941       .  S
C876        C877   1.434       .  A
C876       Br881   1.947       .  S
C877        C878   1.416       .  A
C878       Br879   1.929       .  S
C883        C884   1.416       .  A
C883        C888   1.402       .  A
C883       Br890   1.930   1_545  S
C884        C885   1.414       .  A
C885        C886   1.414       .  A
C885       Br892   1.930       .  S
C886        C887   1.413       .  A
C886       Br891   1.929       .  S
C887        C888   1.410       .  A
C888       Br889   1.935       .  S
C893        C894   1.417       .  A
C893        C898   1.419       .  A
C893       Br900   1.929       .  S
C894        C895   1.421   1_556  A
C895        C896   1.411   1_565  A
C895       Br902   1.932       .  S
C896        C897   1.412       .  A
C896       Br901   1.927       .  S
C897        C898   1.419   1_544  A
C898       Br899   1.922   1_565  S
C903        C904   1.415       .  A
C903        C908   1.400       .  A
C903       Br910   1.935       .  S
C904        C905   1.412       .  A
C905        C906   1.412       .  A
C905       Br912   1.921       .  S
C906        C907   1.407       .  A
C906       Br911   1.925       .  S
C907        C908   1.403       .  A
C908       Br909   1.929       .  S
C913        C914   1.403       .  A
C913        C918   1.411       .  A
C913       Br920   1.930       .  S
C914        C915   1.401       .  A
C915        C916   1.407       .  A
C915       Br922   1.934       .  S
C916        C917   1.423       .  A
C916       Br921   1.925       .  S
C917        C918   1.416       .  A
C918       Br919   1.913       .  S
C923        C924   1.415   1_554  A
C923        C928   1.417   1_554  A
C923       Br930   1.916       .  S
C924        C925   1.429       .  A
C925        C926   1.412   1_565  A
C925       Br932   1.931       .  S
C926        C927   1.408       .  A
C926       Br931   1.929       .  S
C927        C928   1.412   1_545  A
C928       Br929   1.925   1_566  S
C933        C934   1.405       .  A
C933        C938   1.415       .  A
C933       Br940   1.926       .  S
C934        C935   1.404       .  A
C935        C936   1.408       .  A
C935       Br942   1.941       .  S
C936        C937   1.435       .  A
C936       Br941   1.945       .  S
C937        C938   1.417       .  A
C938       Br939   1.924       .  S
C943        C944   1.411       .  A
C943        C948   1.412       .  A
C943       Br950   1.930       .  S
C944        C945   1.419       .  A
C945        C946   1.409       .  A
C945       Br952   1.929       .  S
C946        C947   1.412       .  A
C946       Br951   1.939       .  S
C947        C948   1.413       .  A
C948       Br949   1.930       .  S
