geometry optimzed in LAMMPS
_audit_creation_date              2020-11-30 
_audit_creation_method            'lammps2cif' 
_symmetry_space_group_name_H-M    'P1' 
_symmetry_Int_Tables_number       1 
_symmetry_cell_setting            triclinic 
loop_ 
_symmetry_equiv_pos_as_xyz 
  x,y,z 
_cell_length_a                    34.11230056 
_cell_length_b                    34.19872409051134 
_cell_length_c                    34.28577549901017 
_cell_angle_alpha                 90.21009744941372 
_cell_angle_beta                  89.81454922269232 
_cell_angle_gamma                 89.92863167289663 
loop_ 
_atom_site_label 
_atom_site_type_symbol 
_atom_site_fract_x 
_atom_site_fract_y 
_atom_site_fract_z 
_atom_site_charge 
C1          C  0.24161863  0.85967194  0.03608577     0.04400
C2          C  0.24039819  0.90076612  0.03653595    -0.11800
C3          C  0.24549366  0.92261670  0.00180237     0.01900
C4          C  0.25041978  0.90149269  0.96645130    -0.10300
C5          C  0.24931700  0.86048517  0.96582165     0.04400
C6          C  0.24730758  0.83998566  0.00075939    -0.09700
H7          H  0.23337674  0.91500436  0.06385063     0.10000
H8          H  0.25345465  0.91613924  0.93879100     0.07500
H9          H  0.24629542  0.80828789  0.00005548     0.07400
C10         C  0.60074484  0.03046494  0.03609445     0.04400
C11         C  0.60601729  0.05031371  0.00103371    -0.11800
C12         C  0.60865349  0.02998770  0.96568682     0.01900
C13         C  0.60613366  0.98881275  0.96574051    -0.10300
C14         C  0.59993322  0.96761326  0.00097925     0.04400
C15         C  0.59588886  0.98981125  0.03573746    -0.09700
H16         H  0.60965089  0.08180804  0.00140956     0.10000
H17         H  0.61029246  0.97425178  0.93812882     0.07500
H18         H  0.59001404  0.97639128  0.06349173     0.07400
C19         C  0.83559378  0.98024909  0.30134262     0.04400
C20         C  0.87637772  0.98101722  0.30659677    -0.11800
C21         C  0.89769771  0.94636392  0.31476955     0.01900
C22         C  0.87627304  0.91087770  0.31688990    -0.10300
C23         C  0.83581697  0.90971563  0.30910623     0.04400
C24         C  0.81573189  0.94458806  0.30184675    -0.09700
H25         H  0.89056930  0.00887101  0.30379860     0.10000
H26         H  0.89035641  0.88364128  0.32420309     0.07500
H27         H  0.78446562  0.94396382  0.29624895     0.07400
C28         C  0.00693100  0.98617056  0.68205228     0.04400
C29         C  0.96659033  0.98465672  0.67382519    -0.11800
C30         C  0.94495328  0.94974418  0.67887196     0.01900
C31         C  0.96567162  0.91576531  0.69027423    -0.10300
C32         C  0.00659185  0.91610489  0.69478083     0.04400
C33         C  0.02674319  0.95149679  0.69090857    -0.09700
H34         H  0.95234120  0.01128655  0.66460635     0.10000
H35         H  0.95047403  0.88881964  0.69653158     0.07500
H36         H  0.05805805  0.95226369  0.69600384     0.07400
C37         C  0.95148709  0.62488169  0.08632338     0.04400
C38         C  0.91551689  0.62139983  0.10566551    -0.11800
C39         C  0.88062896  0.61660459  0.08487143     0.01900
C40         C  0.88239948  0.61251367  0.04396608    -0.10300
C41         C  0.91824264  0.61725414  0.02336231     0.04400
C42         C  0.95260589  0.62374074  0.04547470    -0.09700
H43         H  0.91449592  0.62471446  0.13711646     0.10000
H44         H  0.85532229  0.60708893  0.02863599     0.07500
H45         H  0.98035815  0.62981522  0.03154010     0.07400
C46         C  0.95812024  0.26765972  0.91586830     0.04400
C47         C  0.95572394  0.27045715  0.95655789    -0.11800
C48         C  0.91956899  0.26551903  0.97626059     0.01900
C49         C  0.88550001  0.25953544  0.95315852    -0.10300
C50         C  0.88756095  0.25893987  0.91212017     0.04400
C51         C  0.92401315  0.26308727  0.89387283    -0.09700
H52         H  0.98272655  0.27492440  0.97227733     0.10000
H53         H  0.85736006  0.25369161  0.96638899     0.07500
H54         H  0.92616085  0.26043731  0.86241044     0.07400
C55         C  0.60194726  0.86138045  0.03955961     0.04400
C56         C  0.60076231  0.90245037  0.03824579    -0.11800
C57         C  0.59969982  0.92308510  0.00223251     0.01900
C58         C  0.60085096  0.90034902  0.96757733    -0.10300
C59         C  0.60300819  0.85931948  0.96876074     0.04400
C60         C  0.60197287  0.84023858  0.00471076    -0.09700
H61         H  0.60203558  0.91731228  0.06592715     0.10000
H62         H  0.60136590  0.91372114  0.93920019     0.07500
H63         H  0.60390573  0.80859619  0.00556140     0.07400
C64         C  0.22845035  0.02820459  0.96784726     0.04400
C65         C  0.23056407  0.04844815  0.00324240    -0.11800
C66         C  0.23847230  0.02900492  0.03815019     0.01900
C67         C  0.24624474  0.98855580  0.03701354    -0.10300
C68         C  0.24212584  0.96670309  0.00201641     0.04400
C69         C  0.23281189  0.98743720  0.96754755    -0.09700
H70         H  0.22491317  0.07964255  0.00367221     0.10000
H71         H  0.25453606  0.97448430  0.06390753     0.07500
H72         H  0.22773858  0.97253099  0.94024988     0.07400
C73         C  0.83741398  0.98301403  0.67854844     0.04400
C74         C  0.81814208  0.94730128  0.67341261    -0.11800
C75         C  0.83934377  0.91248540  0.67018773     0.01900
C76         C  0.88045304  0.91367763  0.66893295    -0.10300
C77         C  0.90094698  0.94925055  0.67454110     0.04400
C78         C  0.87856885  0.98387137  0.67950269    -0.09700
H79         H  0.78642339  0.94622398  0.67537873     0.10000
H80         H  0.89585100  0.88623680  0.66568495     0.07500
H81         H  0.89248151  0.01140222  0.68637547     0.07400
C82         C  0.00377225  0.98365116  0.32442271     0.04400
C83         C  0.02485162  0.94869444  0.32249381    -0.11800
C84         C  0.00548481  0.91296692  0.31767660     0.01900
C85         C  0.96436163  0.91230108  0.31576058    -0.10300
C86         C  0.94189297  0.94702667  0.31952245     0.04400
C87         C  0.96258210  0.98267988  0.32467331    -0.09700
H88         H  0.05662379  0.94955704  0.32147648     0.10000
H89         H  0.95079124  0.88462462  0.30909952     0.07500
H90         H  0.94765398  0.01023178  0.32720853     0.07400
C91         C  0.88728516  0.63184459  0.91669228     0.04400
C92         C  0.88564953  0.62806502  0.95746713    -0.11800
C93         C  0.91955653  0.61874040  0.97930869     0.01900
C94         C  0.95536336  0.61390555  0.95866117    -0.10300
C95         C  0.95767067  0.62039524  0.91825142     0.04400
C96         C  0.92334327  0.62794620  0.89748082    -0.09700
H97         H  0.85795429  0.63392331  0.97169174     0.10000
H98         H  0.98213170  0.60633676  0.97358982     0.07500
H99         H  0.92496390  0.63260256  0.86625123     0.07400
C100        C  0.87968456  0.26436693  0.08108284     0.04400
C101        C  0.91401838  0.25886931  0.10252437    -0.11800
C102        C  0.95034772  0.25482007  0.08390938     0.01900
C103        C  0.95196706  0.25637496  0.04290430    -0.10300
C104        C  0.91795955  0.26422351  0.02035533     0.04400
C105        C  0.88202065  0.26903582  0.04049225    -0.09700
H106        H  0.91221934  0.25612376  0.13396905     0.10000
H107        H  0.97985537  0.25029165  0.02921870     0.07500
H108        H  0.85520311  0.27538672  0.02510952     0.07400
C109        C  0.33953618  0.48128212  0.81130144     0.04400
C110        C  0.32034625  0.44555965  0.81654093    -0.11800
C111        C  0.34163395  0.41116245  0.82214353     0.01900
C112        C  0.38250872  0.41297562  0.82637533    -0.10300
C113        C  0.40300477  0.44858933  0.82120718     0.04400
C114        C  0.38069545  0.48247481  0.81273390    -0.09700
H115        H  0.28870992  0.44412778  0.81395702     0.10000
H116        H  0.39775294  0.38600761  0.83245345     0.07500
H117        H  0.39478189  0.50988549  0.80590956     0.07400
C118        C  0.33264560  0.48166578  0.17491641     0.04400
C119        C  0.37371035  0.48137160  0.17139704    -0.11800
C120        C  0.39526325  0.44587264  0.17047758     0.01900
C121        C  0.37322657  0.41065183  0.17059578    -0.10300
C122        C  0.33213941  0.41072828  0.17390013     0.04400
C123        C  0.31214231  0.44634110  0.17597096    -0.09700
H124        H  0.38793690  0.50943615  0.17057548     0.10000
H125        H  0.38700458  0.38236437  0.16983102     0.07500
H126        H  0.28063844  0.44656295  0.18026760     0.07400
C127        C  0.12204927  0.36096201  0.47068673     0.04400
C128        C  0.12371303  0.40206184  0.46917104    -0.11800
C129        C  0.11818711  0.42527520  0.50317029     0.01900
C130        C  0.11301497  0.40550723  0.53904330    -0.10300
C131        C  0.11449740  0.36455981  0.54107198     0.04400
C132        C  0.11728088  0.34267830  0.50677894    -0.09700
H133        H  0.13004431  0.41523536  0.44129678     0.10000
H134        H  0.10858445  0.42120285  0.56604651     0.07500
H135        H  0.11727649  0.31102562  0.50839986     0.07400
O136        O  0.17822055  0.25880233  0.68205119    -0.77200
C137        C  0.24391327  0.27554913  0.78819388     0.83800
O138        O  0.23070511  0.13074414  0.70580441    -0.78300
O139        O  0.19820418  0.16605949  0.84240340    -0.79800
O140        O  0.08578143  0.22538253  0.78642558    -0.79600
O141        O  0.11527895  0.25069235  0.69633998    -0.78200
Zn142      Zn  0.20931323  0.22711269  0.72037957     1.55700
O143        O  0.12944889  0.23337113  0.83419073    -0.79600
Cd144      Cd  0.11843029  0.20752007  0.73864791     1.59700
Cd145      Cd  0.18669136  0.14048570  0.74716711     1.59600
O146        O  0.09184338  0.15675141  0.71810685    -0.79600
O147        O  0.17442652  0.19752829  0.75368484    -1.90100
Cd148      Cd  0.18194400  0.21402928  0.80948805     1.59900
O149        O  0.13758113  0.11110502  0.72749859    -0.79600
O150        O  0.22402321  0.25796648  0.81437858    -0.78200
C151        C  0.25084170  0.15464643  0.68548351     0.84300
C152        C  0.14224224  0.26685357  0.67624200     0.83900
O153        O  0.24036586  0.26600397  0.75238384    -0.77200
C154        C  0.09439544  0.23442867  0.82142209     0.84800
O155        O  0.24601823  0.19151573  0.68929876    -0.77300
C156        C  0.10326278  0.12122548  0.71686304     0.84900
C157        C  0.20369157  0.12986918  0.83499196     0.85200
O158        O  0.20166465  0.11594763  0.80046789    -0.79700
C159        C  0.73215943  0.35870512  0.52931699     0.04400
C160        C  0.73260108  0.39972976  0.53217818    -0.11800
C161        C  0.73949741  0.42339896  0.49904233     0.01900
C162        C  0.74575163  0.40421838  0.46277224    -0.10300
C163        C  0.74233815  0.36338012  0.45917563     0.04400
C164        C  0.73684299  0.34092516  0.49276272    -0.09700
H165        H  0.72606857  0.41257832  0.56027562     0.10000
H166        H  0.75201567  0.42054066  0.43659122     0.07500
H167        H  0.73440182  0.30941183  0.49023136     0.07400
C168        C  0.38067642  0.11104548  0.58385754     0.04400
C169        C  0.38282933  0.10663621  0.54306649    -0.11800
C170        C  0.41865115  0.11195705  0.52249038     0.01900
C171        C  0.45291442  0.11872738  0.54501426    -0.10300
C172        C  0.45140790  0.12025697  0.58602231     0.04400
C173        C  0.41526193  0.11632926  0.60497402    -0.09700
H174        H  0.35577951  0.10077198  0.52795406     0.10000
H175        H  0.48076153  0.12488340  0.53135458     0.07500
H176        H  0.41377389  0.11996696  0.63637870     0.07400
O177        O  0.60710150  0.26750001  0.74728395    -0.77200
C178        C  0.70035613  0.25910914  0.66377241     0.83800
O179        O  0.60359745  0.13364720  0.70483788    -0.78300
O180        O  0.74783531  0.14933274  0.71300836    -0.79800
O181        O  0.71914304  0.22861923  0.82577640    -0.79600
O182        O  0.62613281  0.26185569  0.80892523    -0.78200
Zn183      Zn  0.63477201  0.22727580  0.71561297     1.55700
O184        O  0.75966917  0.22196773  0.77485576    -0.79600
Cd185      Cd  0.66397010  0.21344402  0.80392951     1.59700
Cd186      Cd  0.65183371  0.13955022  0.74265242     1.59600
O187        O  0.64464120  0.16684577  0.83827565    -0.79600
O188        O  0.66858954  0.19579357  0.74790629    -1.90100
Cd189      Cd  0.72423444  0.20282804  0.72928203     1.59900
O190        O  0.63701415  0.11666888  0.79707341    -0.79600
O191        O  0.72765949  0.24102844  0.68168440    -0.78200
C192        C  0.58452709  0.15962188  0.68597016     0.84300
C193        C  0.60631725  0.27918109  0.78249948     0.83900
O194        O  0.66480437  0.25602235  0.67456661    -0.77200
C195        C  0.75348178  0.22963081  0.81083118     0.84800
O196        O  0.59413305  0.19548074  0.68804138    -0.77300
C197        C  0.63657623  0.13093879  0.83153837     0.84900
C198        C  0.73478971  0.11442144  0.71343529     0.85200
O199        O  0.69946335  0.10644609  0.72307894    -0.79700
C200        C  0.11785347  0.53039240  0.46351133     0.04400
C201        C  0.11446160  0.48948678  0.46564859    -0.11800
C202        C  0.11905380  0.46949373  0.50145867     0.01900
C203        C  0.12493654  0.49247702  0.53546292    -0.10300
C204        C  0.12567982  0.53344960  0.53368401     0.04400
C205        C  0.12308293  0.55210417  0.49771196    -0.09700
H206        H  0.10850749  0.47387085  0.43890142     0.10000
H207        H  0.12956498  0.47933719  0.56363180     0.07500
H208        H  0.12549582  0.58368223  0.49633600     0.07400
O209        O  0.17192375  0.75428691  0.82770571    -0.77200
C210        C  0.10254469  0.77839677  0.72531703     0.83800
O211        O  0.11128225  0.63185994  0.79949527    -0.78300
O212        O  0.14642496  0.66954420  0.66319274    -0.79800
O213        O  0.25855770  0.72648418  0.71888579    -0.79600
O214        O  0.23404912  0.74315548  0.81310566    -0.78200
Zn215      Zn  0.13827597  0.72671574  0.78876764     1.55700
O216        O  0.21337315  0.73683518  0.67325922    -0.79600
Cd217      Cd  0.22766763  0.70443970  0.76635752     1.59700
Cd218      Cd  0.15556839  0.64078320  0.75784933     1.59600
O219        O  0.25331962  0.65069689  0.77937642    -0.79600
O220        O  0.17069381  0.69724397  0.75301744    -1.90100
Cd221      Cd  0.16180284  0.71629132  0.69838791     1.59900
O222        O  0.20400324  0.60823412  0.77351939    -0.79600
O223        O  0.12001540  0.76097338  0.69719469    -0.78200
C224        C  0.09287878  0.65647653  0.82088674     0.84300
C225        C  0.20814206  0.75983185  0.83436354     0.83900
O226        O  0.10731921  0.76782848  0.76057435    -0.77200
C227        C  0.24890005  0.73741807  0.68469030     0.84800
O228        O  0.10040629  0.69285003  0.81856128    -0.77300
C229        C  0.23997927  0.61583190  0.77999418     0.84900
C230        C  0.14007463  0.63337662  0.66946675     0.85200
O231        O  0.14019306  0.61861144  0.70357443    -0.79700
C232        C  0.50843594  0.48790881  0.82214897     0.04400
C233        C  0.46749040  0.48580187  0.82655664    -0.11800
C234        C  0.44724929  0.44995254  0.82192221     0.01900
C235        C  0.46989093  0.41577086  0.81561450    -0.10300
C236        C  0.51097338  0.41725457  0.81425664     0.04400
C237        C  0.52990908  0.45338620  0.81710132    -0.09700
H238        H  0.45185097  0.51270591  0.83230890     0.10000
H239        H  0.45623162  0.38784565  0.81010084     0.07500
H240        H  0.56147879  0.45475716  0.81362196     0.07400
C241        C  0.38581651  0.76272319  0.58628440     0.04400
C242        C  0.38516364  0.76960881  0.54580678    -0.11800
C243        C  0.41948838  0.76654002  0.52245779     0.01900
C244        C  0.45550921  0.76058105  0.54227090    -0.10300
C245        C  0.45685654  0.75660776  0.58302441     0.04400
C246        C  0.42194108  0.75633764  0.60450946    -0.09700
H247        H  0.35717410  0.77674949  0.53320005     0.10000
H248        H  0.48303030  0.75849533  0.52695692     0.07500
H249        H  0.42300233  0.75083673  0.63560082     0.07400
C250        C  0.73622339  0.52843536  0.54038479     0.04400
C251        C  0.74098289  0.48756331  0.53791882    -0.11800
C252        C  0.73757637  0.46756668  0.50170341     0.01900
C253        C  0.73022655  0.49031000  0.46804319    -0.10300
C254        C  0.72790902  0.53123818  0.47000671     0.04400
C255        C  0.73086479  0.54988380  0.50619093    -0.09700
H256        H  0.74682395  0.47192738  0.56458604     0.10000
H257        H  0.72497841  0.47677226  0.44005677     0.07500
H258        H  0.72757108  0.58138556  0.50788809     0.07400
O259        O  0.73478065  0.77301841  0.74812241    -0.77200
C260        C  0.63774939  0.76706312  0.82964006     0.83800
O261        O  0.73479049  0.64130364  0.79967172    -0.78300
O262        O  0.59056830  0.65820167  0.78226196    -0.79800
O263        O  0.62867769  0.72707642  0.66687600    -0.79600
O264        O  0.72224843  0.75897307  0.68662778    -0.78200
Zn265      Zn  0.70555306  0.73461426  0.78110288     1.55700
O266        O  0.58506276  0.72853064  0.71574466    -0.79600
Cd267      Cd  0.68186128  0.71312216  0.69350117     1.59700
Cd268      Cd  0.68747754  0.64485609  0.76117058     1.59600
O269        O  0.70256001  0.66379622  0.66461645    -0.79600
O270        O  0.67294894  0.70071511  0.75007765    -1.90100
Cd271      Cd  0.61642275  0.70995395  0.76421667     1.59900
O272        O  0.70285167  0.61655545  0.70947111    -0.79600
O273        O  0.61106664  0.74913993  0.81071011    -0.78200
C274        C  0.75407944  0.66836302  0.81669236     0.84300
C275        C  0.74008100  0.77971235  0.71205026     0.83900
O276        O  0.67364888  0.76420509  0.81995323    -0.77200
C277        C  0.59379822  0.73193107  0.67968124     0.84800
O278        O  0.74532668  0.70419052  0.81170521    -0.77300
C279        C  0.70779667  0.62821992  0.67447056     0.84900
C280        C  0.60363746  0.62399140  0.78922212     0.85200
O281        O  0.63967720  0.61504128  0.78435302    -0.79700
C282        C  0.38570867  0.12578724  0.41588557     0.04400
C283        C  0.42175668  0.12721207  0.39662661    -0.11800
C284        C  0.45693963  0.12142131  0.41678357     0.01900
C285        C  0.45550630  0.11332505  0.45708944    -0.10300
C286        C  0.41957869  0.11432201  0.47819183     0.04400
C287        C  0.38471759  0.12047972  0.45648146    -0.09700
H288        H  0.42239675  0.13403600  0.36577321     0.10000
H289        H  0.48285312  0.10712404  0.47155840     0.07500
H290        H  0.35645781  0.12274421  0.47048943     0.07400
O291        O  0.60593268  0.26862781  0.25114082    -0.77200
C292        C  0.59104233  0.16085601  0.31889259     0.83800
O293        O  0.73323809  0.24606342  0.30496658    -0.78300
O294        O  0.70187218  0.10861585  0.27302234    -0.79800
O295        O  0.63676118  0.16298985  0.16196532    -0.79600
O296        O  0.61713741  0.25496151  0.18884438    -0.78200
Zn297      Zn  0.63677093  0.22976802  0.28316300     1.55700
O298        O  0.63378137  0.11513418  0.20589591    -0.79600
Cd299      Cd  0.65794329  0.21043723  0.19286043     1.59700
Cd300      Cd  0.72504030  0.20459052  0.26084660     1.59600
O301        O  0.70938062  0.22762968  0.16520643    -0.79600
O302        O  0.66798716  0.19680745  0.24887806    -1.90100
Cd303      Cd  0.65333236  0.14077915  0.25708546     1.59900
O304        O  0.75429509  0.22475900  0.21231422    -0.79600
O305        O  0.60983706  0.13532657  0.29907854    -0.78200
C306        C  0.70827464  0.26577267  0.32471990     0.84300
C307        C  0.60000832  0.27528395  0.21505293     0.83900
O308        O  0.59842667  0.19731831  0.31555304    -0.77200
C309        C  0.62962256  0.12767123  0.17120631     0.84800
O310        O  0.67157546  0.26110575  0.31938004    -0.77300
C311        C  0.74450991  0.23160555  0.17719591     0.84900
C312        C  0.73806384  0.11667280  0.27720751     0.85200
O313        O  0.75140469  0.15137936  0.27417520    -0.79700
C314        C  0.44973218  0.76644437  0.41368976     0.04400
C315        C  0.45174782  0.76863276  0.45459452    -0.11800
C316        C  0.41733399  0.76795895  0.47809621     0.01900
C317        C  0.38077792  0.76560678  0.45835192    -0.10300
C318        C  0.37862725  0.76496543  0.41739863     0.04400
C319        C  0.41313931  0.76618833  0.39551021    -0.09700
H320        H  0.48060232  0.76930207  0.46718026     0.10000
H321        H  0.35346189  0.76276577  0.47394053     0.07500
H322        H  0.41160696  0.76407264  0.36397862     0.07400
C323        C  0.50287490  0.47961477  0.18201574     0.04400
C324        C  0.52261210  0.44390456  0.18072913    -0.11800
C325        C  0.50202611  0.40902956  0.17680223     0.01900
C326        C  0.46129434  0.40982948  0.17149375    -0.10300
C327        C  0.43990069  0.44550313  0.17223056     0.04400
C328        C  0.46187116  0.48043880  0.17783977    -0.09700
H329        H  0.55405451  0.44309082  0.18530290     0.10000
H330        H  0.44728837  0.38186264  0.16820082     0.07500
H331        H  0.44801012  0.50859743  0.18066303     0.07400
O332        O  0.66439730  0.63393427  0.32417602    -0.77200
C333        C  0.58636449  0.73196477  0.31610684     0.83800
O334        O  0.62140741  0.63104597  0.19184438    -0.78300
O335        O  0.63846882  0.77499748  0.20679520    -0.79800
O336        O  0.75118243  0.73813498  0.28039288    -0.79600
O337        O  0.72753666  0.64761509  0.31646371    -0.78200
Zn338      Zn  0.63449656  0.66342549  0.28454244     1.55700
O339        O  0.70217353  0.78169392  0.27933548    -0.79600
Cd340      Cd  0.72471050  0.68451209  0.26740372     1.59700
Cd341      Cd  0.66027404  0.67819943  0.19611423     1.59600
O342        O  0.75615667  0.65998613  0.22060755    -0.79600
O343        O  0.66848985  0.69413880  0.25200881    -1.90100
Cd344      Cd  0.65378435  0.75063667  0.25985690     1.59900
O345        O  0.71334692  0.66085766  0.17141061    -0.79600
O346        O  0.60595205  0.75803190  0.29799204    -0.78200
C347        C  0.60180381  0.61373031  0.21844348     0.84300
C348        C  0.69984534  0.63022490  0.33469883     0.83900
O349        O  0.59562543  0.69608061  0.31327538    -0.77200
C350        C  0.73824267  0.77304832  0.28423221     0.84800
O351        O  0.60424351  0.62448358  0.25383912    -0.77300
C352        C  0.74767993  0.65447105  0.18469119     0.84900
C353        C  0.63390233  0.76157109  0.17235887     0.85200
O354        O  0.63944559  0.72555425  0.16393868    -0.79700
O355        O  0.09776602  0.69529906  0.18487177    -0.77200
C356        C  0.10101512  0.77555121  0.28231808     0.83800
O357        O  0.23085837  0.74339720  0.18849591    -0.78300
O358        O  0.21013489  0.72594590  0.33112945    -0.79800
O359        O  0.14006232  0.61270587  0.29106747    -0.79600
O360        O  0.10608930  0.63317413  0.20114367    -0.78200
Zn361      Zn  0.13587174  0.72728800  0.21540164     1.55700
O362        O  0.13783009  0.66170299  0.33435916    -0.79600
Cd363      Cd  0.15384352  0.63921363  0.23863201     1.59700
Cd364      Cd  0.22501258  0.70427627  0.23491225     1.59600
O365        O  0.20135214  0.60902405  0.21606868    -0.79600
O366        O  0.16823453  0.69536991  0.24814760    -1.90100
Cd367      Cd  0.15811267  0.70996950  0.30408754     1.59900
O368        O  0.25114573  0.65142671  0.21889606    -0.79600
O369        O  0.11894485  0.75687519  0.30905523    -0.78200
C370        C  0.20437606  0.76129999  0.16929331     0.84300
C371        C  0.08781449  0.65956158  0.18230121     0.83900
O372        O  0.10486640  0.76592553  0.24664398    -0.77200
C373        C  0.13453567  0.62555570  0.32561189     0.84800
O374        O  0.16824243  0.75744284  0.17762919    -0.77300
C375        C  0.23755273  0.61732596  0.21199693     0.84900
C376        C  0.24512436  0.73099889  0.31896545     0.85200
O377        O  0.25492830  0.72556463  0.28338510    -0.79700
O378        O  0.23089337  0.26901275  0.24666752    -0.77200
C379        C  0.13840665  0.26145696  0.33357013     0.83800
O380        O  0.23040572  0.13674368  0.30055531    -0.78300
O381        O  0.08858880  0.15194809  0.28619638    -0.79800
O382        O  0.11928420  0.22632732  0.17098620    -0.79600
O383        O  0.21439792  0.25641134  0.18549681    -0.78200
Zn384      Zn  0.20355575  0.22988998  0.28052918     1.55700
O385        O  0.07879765  0.22418561  0.22228601    -0.79600
Cd386      Cd  0.17391705  0.21113694  0.19407083     1.59700
Cd387      Cd  0.18476672  0.14094929  0.25989697     1.59600
O388        O  0.19393052  0.16296502  0.16294151    -0.79600
O389        O  0.16881025  0.19685783  0.25084929    -1.90100
Cd390      Cd  0.11306181  0.20504926  0.26874253     1.59900
O391        O  0.20255263  0.11590292  0.20715180    -0.79600
O392        O  0.11037624  0.24408564  0.31601890    -0.78200
C393        C  0.25181486  0.16324601  0.31586937     0.84300
C394        C  0.23417219  0.27597847  0.21036060     0.83900
O395        O  0.17375919  0.25823561  0.32204772    -0.77200
C396        C  0.08502734  0.22945409  0.18589743     0.84800
O397        O  0.24512649  0.19906726  0.30853237    -0.77300
C398        C  0.20381607  0.12816645  0.17199981     0.84900
C399        C  0.10189102  0.11713900  0.28861122     0.85200
O400        O  0.13734362  0.10856053  0.28024337    -0.79700
C401        C  0.52562385  0.51551063  0.19196822    -0.04100
C402        C  0.53007205  0.54608435  0.16478511    -0.01200
C403        C  0.55468563  0.57826964  0.17326621     0.03800
C404        C  0.57574333  0.57982103  0.20884385    -0.04100
C405        C  0.57089757  0.54899119  0.23613697    -0.01200
C406        C  0.54535823  0.51766826  0.22805443     0.03800
C407        C  0.50980979  0.54409510  0.12771459     0.38400
C408        C  0.59311247  0.54831091  0.27224003     0.38400
C409        C  0.53905589  0.48759678  0.25726176     0.36900
C410        C  0.55745530  0.61008733  0.14555315     0.36900
N411        N  0.53394669  0.46363612  0.28047763    -0.38000
N412        N  0.55961692  0.63544336  0.12339371    -0.38000
N413        N  0.61070557  0.54761729  0.30104888    -0.37400
N414        N  0.49358163  0.54254919  0.09816234    -0.37400
C415        C  0.34068985  0.75887211  0.39648038    -0.04100
C416        C  0.31995654  0.72328635  0.40054845    -0.01200
C417        C  0.28738028  0.71516950  0.37650808     0.03800
C418        C  0.27595747  0.74199443  0.34743732    -0.04100
C419        C  0.29553332  0.77817151  0.34439110    -0.01200
C420        C  0.32754758  0.78672948  0.36902290     0.03800
C421        C  0.33360555  0.69381939  0.42763742     0.38400
C422        C  0.28245837  0.80673314  0.31608500     0.38400
C423        C  0.34726589  0.82414767  0.36589847     0.36900
C424        C  0.26669464  0.67830440  0.38043453     0.36900
N425        N  0.36304497  0.85398003  0.36345446    -0.38000
N426        N  0.25006154  0.64899348  0.38353191    -0.38000
N427        N  0.27188873  0.82959185  0.29363166    -0.37400
N428        N  0.34457692  0.67015930  0.44904652    -0.37400
C429        C  0.48544612  0.75832966  0.38955051    -0.04100
C430        C  0.48775768  0.72291842  0.36831360    -0.01200
C431        C  0.51933709  0.71578279  0.34273799     0.03800
C432        C  0.55120602  0.74238851  0.34046125    -0.04100
C433        C  0.54932086  0.77754621  0.36250762    -0.01200
C434        C  0.51624074  0.78573340  0.38636045     0.03800
C435        C  0.45785173  0.69309586  0.37340975     0.38400
C436        C  0.58153769  0.80512814  0.36140451     0.38400
C437        C  0.51359239  0.82264362  0.40715122     0.36900
C438        C  0.51770346  0.68158983  0.31748206     0.36900
N439        N  0.51142671  0.85214118  0.42367481    -0.38000
N440        N  0.51613500  0.65448124  0.29723154    -0.38000
N441        N  0.60716908  0.82725400  0.36060950    -0.37400
N442        N  0.43406132  0.66937411  0.37765110    -0.37400
C443        C  0.57257743  0.30759631  0.20343824    -0.04100
C444        C  0.54182405  0.31962478  0.22891309    -0.01200
C445        C  0.51777030  0.35171904  0.21927259     0.03800
C446        C  0.52324611  0.37168530  0.18376325    -0.04100
C447        C  0.55228696  0.35880357  0.15739878    -0.01200
C448        C  0.57720775  0.32734588  0.16722672     0.03800
C449        C  0.53450487  0.29932546  0.26534889     0.38400
C450        C  0.55671319  0.37841473  0.12016139     0.38400
C451        C  0.60870976  0.31704590  0.14053119     0.36900
C452        C  0.48836614  0.36535673  0.24688197     0.36900
N453        N  0.63380483  0.30909057  0.11911223    -0.38000
N454        N  0.46504625  0.37629991  0.26895534    -0.38000
N455        N  0.56004370  0.39403573  0.09044997    -0.37400
N456        N  0.52870326  0.28336789  0.29451614    -0.37400
C457        C  0.49496878  0.12688555  0.39520037    -0.04100
C458        C  0.52247428  0.15542808  0.40738658    -0.01200
C459        C  0.55500237  0.16486099  0.38347235     0.03800
C460        C  0.55919775  0.14776667  0.34602568    -0.04100
C461        C  0.53232496  0.11845475  0.33436695    -0.01200
C462        C  0.50157351  0.10695588  0.35951713     0.03800
C463        C  0.51668402  0.17644811  0.44378366     0.38400
C464        C  0.53452175  0.10171701  0.29544671     0.38400
C465        C  0.47676778  0.07424383  0.34868892     0.36900
C466        C  0.58457817  0.19172810  0.39782220     0.36900
N467        N  0.45723965  0.04793774  0.34017315    -0.38000
N468        N  0.60839961  0.21284662  0.40935430    -0.38000
N469        N  0.53592778  0.08866797  0.26427428    -0.37400
N470        N  0.51216375  0.19323171  0.47283127    -0.37400
C471        C  0.34924625  0.13383817  0.39324753    -0.04100
C472        C  0.33211741  0.17124980  0.39463431    -0.01200
C473        C  0.30076118  0.18094219  0.36957711     0.03800
C474        C  0.28506879  0.15268097  0.34310450    -0.04100
C475        C  0.30194452  0.11454075  0.34287495    -0.01200
C476        C  0.33388467  0.10545569  0.36758085     0.03800
C477        C  0.34770357  0.20034123  0.42136721     0.38400
C478        C  0.28788421  0.08459748  0.31629857     0.38400
C479        C  0.35126243  0.06670125  0.36647803     0.36900
C480        C  0.28568456  0.22062442  0.37121479     0.36900
N481        N  0.36503915  0.03576813  0.36557535    -0.38000
N482        N  0.27437179  0.25253055  0.37255196    -0.38000
N483        N  0.27680679  0.06055595  0.29520210    -0.37400
N484        N  0.36015618  0.22338217  0.44278553    -0.37400
C485        C  0.73340487  0.54952510  0.57864877    -0.04100
C486        C  0.75841716  0.58155501  0.58656398    -0.01200
C487        C  0.75060349  0.60681793  0.61833749     0.03800
C488        C  0.71871366  0.59937557  0.64363238    -0.04100
C489        C  0.69543132  0.56572240  0.63749410    -0.01200
C490        C  0.70217319  0.54142929  0.60468411     0.03800
C491        C  0.79195839  0.58891626  0.56153261     0.38400
C492        C  0.66287780  0.55739306  0.66354974     0.38400
C493        C  0.67504697  0.50989293  0.59621189     0.36900
C494        C  0.77526843  0.64076566  0.62478645     0.36900
N495        N  0.65323619  0.48492134  0.58934609    -0.38000
N496        N  0.79475966  0.66798243  0.62984401    -0.38000
N497        N  0.63703213  0.55075800  0.68445099    -0.37400
N498        N  0.81869981  0.59478075  0.54154792    -0.37400
C499        C  0.72023297  0.55512796  0.43444006    -0.04100
C500        C  0.68679791  0.57945644  0.43293683    -0.01200
C501        C  0.68127493  0.60511670  0.40135369     0.03800
C502        C  0.70793483  0.60514609  0.36943229    -0.04100
C503        C  0.74046383  0.57942462  0.37019224    -0.01200
C504        C  0.74696499  0.55510441  0.40283371     0.03800
C505        C  0.65726969  0.57727009  0.46349177     0.38400
C506        C  0.76649121  0.57660068  0.33681268     0.38400
C507        C  0.78149728  0.53033259  0.40400975     0.36900
C508        C  0.64834294  0.63210059  0.40250573     0.36900
N509        N  0.80899481  0.51050327  0.40490329    -0.38000
N510        N  0.62205743  0.65352473  0.40355457    -0.38000
N511        N  0.78728331  0.57400202  0.31020660    -0.37400
N512        N  0.63372114  0.57531407  0.48778376    -0.37400
C513        C  0.49491358  0.75195092  0.60393954    -0.04100
C514        C  0.51599612  0.71643483  0.60171990    -0.01200
C515        C  0.54942828  0.71059359  0.62528957     0.03800
C516        C  0.56170532  0.74004864  0.65160065    -0.04100
C517        C  0.54160366  0.77611451  0.65262563    -0.01200
C518        C  0.50874790  0.78226759  0.62841674     0.03800
C519        C  0.50249001  0.68540776  0.57615867     0.41600
C520        C  0.55478638  0.80691032  0.67863570     0.38400
C521        C  0.48955412  0.82011641  0.62811109     0.36900
C522        C  0.57009943  0.67349969  0.62385615     0.36900
N523        N  0.47463005  0.85051075  0.62751232    -0.38000
N524        N  0.58660831  0.64392320  0.62280615    -0.38000
N525        N  0.56531268  0.83144863  0.69942797    -0.37400
N526        N  0.49168618  0.66071711  0.55569087    -0.37400
C527        C  0.57577698  0.59290729  0.80160715    -0.04100
C528        C  0.54211014  0.58492456  0.77900036    -0.01200
C529        C  0.51902513  0.55162173  0.78688465     0.03800
C530        C  0.52891879  0.52632024  0.81797031    -0.04100
C531        C  0.56103898  0.53589337  0.84218200    -0.01200
C532        C  0.58415670  0.56916936  0.83416758     0.03800
C533        C  0.53226293  0.60978674  0.74620088     0.38400
C534        C  0.57079665  0.51108892  0.87500228     0.38400
C535        C  0.61595361  0.57962422  0.86012577     0.36900
C536        C  0.48674287  0.54200618  0.76109599     0.36900
N537        N  0.64090240  0.58820823  0.88125337    -0.38000
N538        N  0.46105224  0.53428105  0.74050276    -0.38000
N539        N  0.57880543  0.49113952  0.90098846    -0.37400
N540        N  0.52433056  0.62969009  0.72015020    -0.37400
C541        C  0.28057099  0.74900843  0.65690033    -0.04100
C542        C  0.28349345  0.73073064  0.61994721    -0.01200
C543        C  0.31805881  0.73439294  0.59747665     0.03800
C544        C  0.34840597  0.76000271  0.60946123    -0.04100
C545        C  0.34331111  0.78172322  0.64442323    -0.01200
C546        C  0.31017798  0.77538905  0.66849643     0.03800
C547        C  0.25107856  0.70793251  0.60478637     0.38400
C548        C  0.37188321  0.81095441  0.65570668     0.38400
C549        C  0.30590148  0.79703491  0.70474455     0.36900
C550        C  0.32325680  0.70948115  0.56349285     0.36900
N551        N  0.30237389  0.81438871  0.73358914    -0.38000
N552        N  0.32740340  0.68923947  0.53667707    -0.38000
N553        N  0.39440952  0.83441605  0.66506015    -0.37400
N554        N  0.22495589  0.69072351  0.59185618    -0.37400
C555        C  0.12631736  0.59738552  0.35741270    -0.04100
C556        C  0.15239211  0.56594061  0.36405482    -0.01200
C557        C  0.14868577  0.54305480  0.39800543     0.03800
C558        C  0.11839750  0.55091079  0.42521387    -0.04100
C559        C  0.09086349  0.58077176  0.41723797    -0.01200
C560        C  0.09482499  0.60389057  0.38345623     0.03800
C561        C  0.18452245  0.55844234  0.33713353     0.38400
C562        C  0.05873392  0.58813250  0.44412441     0.38400
C563        C  0.06618737  0.63411982  0.37519450     0.36900
C564        C  0.17774655  0.51315362  0.40614591     0.36900
N565        N  0.04321244  0.65805766  0.36843019    -0.38000
N566        N  0.20096791  0.48938529  0.41269519    -0.38000
N567        N  0.03324754  0.59415267  0.46569380    -0.37400
N568        N  0.21005243  0.55240707  0.31560965    -0.37400
C569        C  0.12944995  0.55748083  0.56964505    -0.04100
C570        C  0.09565604  0.56812239  0.59118517    -0.01200
C571        C  0.09882350  0.59336220  0.62372003     0.03800
C572        C  0.13590442  0.60701029  0.63548203    -0.04100
C573        C  0.16979598  0.59554880  0.61454245    -0.01200
C574        C  0.16647414  0.57161766  0.58117352     0.03800
C575        C  0.05757948  0.55357029  0.57939603     0.38400
C576        C  0.20825252  0.60769862  0.62789154     0.38400
C577        C  0.20106623  0.56202434  0.55833008     0.36900
C578        C  0.06398450  0.60612957  0.64450492     0.36900
N579        N  0.22864370  0.55468726  0.53995321    -0.38000
N580        N  0.03623341  0.61662767  0.66100652    -0.38000
N581        N  0.23893532  0.61699552  0.63883691    -0.37400
N582        N  0.02725072  0.54179740  0.56997377    -0.37400
C583        C  0.53449941  0.38131583  0.80623052    -0.04100
C584        C  0.53576608  0.35038136  0.83343503    -0.01200
C585        C  0.55898193  0.31684756  0.82589790     0.03800
C586        C  0.58228077  0.31462911  0.79171049    -0.04100
C587        C  0.58117409  0.34605357  0.76475705    -0.01200
C588        C  0.55659354  0.37851433  0.77148542     0.03800
C589        C  0.51340918  0.35323358  0.86939601     0.38400
C590        C  0.60597384  0.34574929  0.73021411     0.38400
C591        C  0.55311038  0.40863290  0.74191650     0.36900
C592        C  0.55736588  0.28400986  0.85249449     0.36900
N593        N  0.55007219  0.43254376  0.71831294    -0.38000
N594        N  0.55576200  0.25769620  0.87357080    -0.38000
N595        N  0.62567481  0.34559267  0.70266074    -0.37400
N596        N  0.49555912  0.35560338  0.89807271    -0.37400
C597        C  0.48669228  0.13074286  0.60973609    -0.04100
C598        C  0.51857268  0.10461680  0.61339363    -0.01200
C599        C  0.55027791  0.11356632  0.63851915     0.03800
C600        C  0.55027940  0.14868237  0.66068594    -0.04100
C601        C  0.51792267  0.17463108  0.65704334    -0.01200
C602        C  0.48706365  0.16617516  0.63101756     0.03800
C603        C  0.51862017  0.06824777  0.59152733     0.38400
C604        C  0.51511609  0.20948297  0.68124184     0.38400
C605        C  0.45579694  0.19449340  0.62548941     0.36900
C606        C  0.58317002  0.08677501  0.64084162     0.36900
N607        N  0.43088374  0.21697497  0.62077635    -0.38000
N608        N  0.60941178  0.06539435  0.64281115    -0.38000
N609        N  0.51254759  0.23719520  0.70057533    -0.37400
N610        N  0.51881956  0.03924790  0.57402706    -0.37400
C611        C  0.73903680  0.34380884  0.42014335    -0.04100
C612        C  0.76448184  0.31282308  0.40972536    -0.01200
C613        C  0.75605929  0.28862487  0.37720726     0.03800
C614        C  0.72158825  0.29486444  0.35494764    -0.04100
C615        C  0.69855909  0.32858445  0.36307903    -0.01200
C616        C  0.70710657  0.35267631  0.39551052     0.03800
C617        C  0.79914113  0.30546404  0.43301044     0.38400
C618        C  0.66588037  0.33893013  0.33806997     0.38400
C619        C  0.68163667  0.38556781  0.40452677     0.36900
C620        C  0.78240861  0.25659235  0.36786287     0.36900
N621        N  0.66145806  0.41190394  0.41160657    -0.38000
N622        N  0.80369544  0.23125932  0.36034763    -0.38000
N623        N  0.63977659  0.34723435  0.31824990    -0.37400
N624        N  0.82676022  0.29958802  0.45161754    -0.37400
C625        C  0.70935511  0.28418883  0.62914750    -0.04100
C626        C  0.74288540  0.30859298  0.62837709    -0.01200
C627        C  0.75029531  0.33296617  0.59590475     0.03800
C628        C  0.72390768  0.33391926  0.56422137    -0.04100
C629        C  0.69012648  0.31008590  0.56519536    -0.01200
C630        C  0.68328510  0.28484032  0.59695048     0.03800
C631        C  0.76928844  0.30969700  0.66143718     0.38400
C632        C  0.66178440  0.31210015  0.53373203     0.38400
C633        C  0.64983068  0.25862739  0.59558860     0.36900
C634        C  0.78552538  0.35665774  0.59481281     0.36900
N635        N  0.62319890  0.23771688  0.59439308    -0.38000
N636        N  0.81362205  0.37556770  0.59388120    -0.38000
N637        N  0.63923167  0.31379771  0.50864425    -0.37400
N638        N  0.79033546  0.31067340  0.68783200    -0.37400
C639        C  0.28042326  0.13955982  0.65631186    -0.04100
C640        C  0.28746655  0.16032011  0.62118499    -0.01200
C641        C  0.31840273  0.14922703  0.59589868     0.03800
C642        C  0.34232650  0.11666081  0.60472840    -0.04100
C643        C  0.33259309  0.09332578  0.63725276    -0.01200
C644        C  0.30220526  0.10481878  0.66315267     0.03800
C645        C  0.26264036  0.19305167  0.61045485     0.38400
C646        C  0.35402376  0.05730427  0.64398552     0.38400
C647        C  0.29476664  0.08138510  0.69753319     0.36900
C648        C  0.32646701  0.17248543  0.56146212     0.36900
N649        N  0.28896753  0.06235909  0.72478362    -0.38000
N650        N  0.33279305  0.19082658  0.53385136    -0.38000
N651        N  0.37091371  0.02841735  0.64913323    -0.37400
N652        N  0.24287348  0.21911308  0.60175267    -0.37400
C653        C  0.12626801  0.33622380  0.43480719    -0.04100
C654        C  0.15481407  0.30616703  0.43344580    -0.01200
C655        C  0.15574431  0.27966793  0.40196733     0.03800
C656        C  0.13115390  0.28520462  0.36935281    -0.04100
C657        C  0.10252516  0.31505690  0.37048952    -0.01200
C658        C  0.09971958  0.34012309  0.40334685     0.03800
C659        C  0.18413253  0.30292053  0.46389581     0.38400
C660        C  0.07598485  0.32007801  0.33795277     0.38400
C661        C  0.06902245  0.36946480  0.40502593     0.36900
C662        C  0.18008749  0.24489788  0.40444071     0.36900
N663        N  0.04461107  0.39296193  0.40646708    -0.38000
N664        N  0.19855528  0.21660118  0.40678872    -0.38000
N665        N  0.05460572  0.32399120  0.31211436    -0.37400
N666        N  0.20765568  0.30030844  0.48800399    -0.37400
C667        C  0.11792137  0.34399629  0.57917273    -0.04100
C668        C  0.09028974  0.31531156  0.59004899    -0.01200
C669        C  0.09717836  0.29114366  0.62265913     0.03800
C670        C  0.13199722  0.29544509  0.64484430    -0.04100
C671        C  0.15828339  0.32617363  0.63531853    -0.01200
C672        C  0.15157203  0.34978703  0.60236930     0.03800
C673        C  0.05514057  0.30992995  0.56690318     0.38400
C674        C  0.19245673  0.33392623  0.65931559     0.38400
C675        C  0.18072845  0.37853913  0.59098784     0.36900
C676        C  0.06897994  0.26081401  0.63197000     0.36900
N677        N  0.20396780  0.40136744  0.58176530    -0.38000
N678        N  0.04635407  0.23674625  0.63939503    -0.38000
N679        N  0.21976014  0.34021099  0.67828776    -0.37400
N680        N  0.02723542  0.30547584  0.54830931    -0.37400
C681        C  0.31007644  0.37349186  0.18016059    -0.04100
C682        C  0.28014993  0.36187004  0.15421935    -0.01200
C683        C  0.25584797  0.32952773  0.16310603     0.03800
C684        C  0.26203441  0.30761288  0.19766653    -0.04100
C685        C  0.29481380  0.31715623  0.22137586    -0.01200
C686        C  0.31761806  0.35057633  0.21346505     0.03800
C687        C  0.27465084  0.38304425  0.11804191     0.38400
C688        C  0.30625712  0.29207359  0.25351447     0.38400
C689        C  0.34789885  0.36226029  0.24078831     0.36900
C690        C  0.22427525  0.31959601  0.13668162     0.36900
N691        N  0.37193106  0.37164904  0.26263165    -0.38000
N692        N  0.19937394  0.31175529  0.11520190    -0.38000
N693        N  0.31562702  0.27203067  0.27897888    -0.37400
N694        N  0.27043024  0.39968557  0.08902404    -0.37400
C695        C  0.26476085  0.58546882  0.20035556    -0.04100
C696        C  0.25956584  0.56551000  0.16461174    -0.01200
C697        C  0.28284368  0.53252367  0.15547624     0.03800
C698        C  0.31106847  0.51892081  0.18230545    -0.04100
C699        C  0.31654788  0.53924102  0.21787622    -0.01200
C700        C  0.29378451  0.57262554  0.22666392     0.03800
C701        C  0.23009565  0.57889271  0.13729703     0.38400
C702        C  0.34387375  0.52432418  0.24659268     0.38400
C703        C  0.29856830  0.59232537  0.26392408     0.36900
C704        C  0.27750847  0.51235956  0.11859182     0.36900
N705        N  0.30225600  0.60798152  0.29367075    -0.38000
N706        N  0.27317293  0.49633348  0.08913760    -0.38000
N707        N  0.36550503  0.51218242  0.26950550    -0.37400
N708        N  0.20652471  0.58961423  0.11560002    -0.37400
C709        C  0.32106276  0.37306138  0.81705822    -0.04100
C710        C  0.29180456  0.36137046  0.84360101    -0.01200
C711        C  0.26651942  0.32988279  0.83445926     0.03800
C712        C  0.27160171  0.30818052  0.79921143    -0.04100
C713        C  0.30289046  0.31891359  0.77378692    -0.01200
C714        C  0.32689842  0.35137232  0.78246811     0.03800
C715        C  0.28777766  0.38208493  0.88043251     0.38400
C716        C  0.31059748  0.29728991  0.73803820     0.38400
C717        C  0.35674558  0.36356791  0.75473718     0.36900
C718        C  0.23389766  0.32201049  0.86051665     0.36900
N719        N  0.38052725  0.37338291  0.73271413    -0.38000
N720        N  0.20778276  0.31628661  0.88136165    -0.38000
N721        N  0.31673055  0.28040647  0.70933232    -0.37400
N722        N  0.28500980  0.39848442  0.90990362    -0.37400
C723        C  0.31611781  0.51700059  0.80196251    -0.04100
C724        C  0.31747466  0.55027775  0.82657269    -0.01200
C725        C  0.29302290  0.58283764  0.81926447     0.03800
C726        C  0.26716594  0.58253470  0.78713987    -0.04100
C727        C  0.26683992  0.54979863  0.76176259    -0.01200
C728        C  0.29098144  0.51720041  0.76920620     0.03800
C729        C  0.34293794  0.55047411  0.86037392     0.38400
C730        C  0.24220517  0.54976021  0.72730812     0.38400
C731        C  0.28991839  0.48384113  0.74286377     0.36900
C732        C  0.29318562  0.61586187  0.84593352     0.36900
N733        N  0.28870088  0.45711490  0.72209151    -0.38000
N734        N  0.29320943  0.64215527  0.86727821    -0.38000
N735        N  0.22262322  0.54935424  0.69981910    -0.37400
N736        N  0.36337927  0.55061944  0.88724705    -0.37400
C737        C  0.84115063  0.26048110  0.10139775    -0.04100
C738        C  0.83201427  0.28475401  0.13363469    -0.01200
C739        C  0.79978522  0.27590598  0.15790068     0.03800
C740        C  0.77562576  0.24347888  0.14939732    -0.04100
C741        C  0.78343542  0.22039666  0.11602102    -0.01200
C742        C  0.81611006  0.22878426  0.09214730     0.03800
C743        C  0.85619248  0.31857082  0.14218463     0.38400
C744        C  0.75987990  0.18593511  0.10811377     0.38400
C745        C  0.82531538  0.20309834  0.05956448     0.36900
C746        C  0.79208792  0.29959890  0.19229668     0.36900
N747        N  0.83264833  0.18267114  0.03354988    -0.38000
N748        N  0.78608295  0.31818776  0.21995815    -0.38000
N749        N  0.74131378  0.15828257  0.10202811    -0.37400
N750        N  0.87548912  0.34553385  0.14901329    -0.37400
C751        C  0.98620186  0.24726088  0.10805436    -0.04100
C752        C  0.98655951  0.21599974  0.13497691    -0.01200
C753        C  0.01771133  0.21182149  0.16161670     0.03800
C754        C  0.05076561  0.23674539  0.15970648    -0.04100
C755        C  0.05127698  0.26702574  0.13167484    -0.01200
C756        C  0.01882719  0.27278478  0.10659329     0.03800
C757        C  0.95526182  0.18724138  0.13468917     0.38400
C758        C  0.08423384  0.29366824  0.12994403     0.38400
C759        C  0.01847799  0.30588454  0.08025298     0.36900
C760        C  0.01526075  0.18180288  0.19129146     0.36900
N761        N  0.01809719  0.33228420  0.05923066    -0.38000
N762        N  0.01260072  0.15849349  0.21551181    -0.38000
N763        N  0.11031441  0.31521140  0.12847076    -0.37400
N764        N  0.93043171  0.16421042  0.13441474    -0.37400
C765        C  0.85174029  0.64225347  0.89357600    -0.04100
C766        C  0.85164929  0.67648920  0.87069827    -0.01200
C767        C  0.82099023  0.68359113  0.84419294     0.03800
C768        C  0.78785764  0.65860090  0.84282153    -0.04100
C769        C  0.78720441  0.62515100  0.86715422    -0.01200
C770        C  0.81933205  0.61664599  0.89174278     0.03800
C771        C  0.88308628  0.70482987  0.87470206     0.38400
C772        C  0.75366284  0.59919746  0.86715270     0.38400
C773        C  0.81951116  0.58085919  0.91434592     0.36900
C774        C  0.82553444  0.71489039  0.81612425     0.36900
N775        N  0.81973057  0.55228985  0.93233239    -0.38000
N776        N  0.82996704  0.73925858  0.79323204    -0.38000
N777        N  0.72718614  0.57809656  0.86726247    -0.37400
N778        N  0.90804003  0.72747429  0.87810985    -0.37400
C779        C  0.99622433  0.62470523  0.89774559    -0.04100
C780        C  0.00565123  0.60083217  0.86535432    -0.01200
C781        C  0.03779319  0.61016965  0.84087303     0.03800
C782        C  0.06160924  0.64323023  0.84903504    -0.04100
C783        C  0.05397476  0.66498987  0.88369853    -0.01200
C784        C  0.02120308  0.65617252  0.90739539     0.03800
C785        C  0.98180752  0.56673131  0.85699600     0.38400
C786        C  0.07972701  0.69666676  0.89548465     0.38400
C787        C  0.01209033  0.68092014  0.94075449     0.36900
C788        C  0.04477011  0.58661490  0.80627537     0.36900
N789        N  0.00473715  0.70056833  0.96735529    -0.38000
N790        N  0.05020785  0.56775463  0.77867979    -0.38000
N791        N  0.10007194  0.72197266  0.90509220    -0.37400
N792        N  0.96283930  0.53946213  0.85047410    -0.37400
C793        C  0.02883342  0.87707425  0.30875196    -0.04100
C794        C  0.05153856  0.87547638  0.27429961    -0.01200
C795        C  0.07555323  0.84286665  0.26633724     0.03800
C796        C  0.07608961  0.81037840  0.29201951    -0.04100
C797        C  0.05262984  0.81170254  0.32623493    -0.01200
C798        C  0.02925806  0.84498683  0.33457807     0.03800
C799        C  0.04978713  0.90734317  0.24645484     0.38400
C800        C  0.05183803  0.77871036  0.35268014     0.38400
C801        C  0.00601156  0.84646368  0.37005619     0.36900
C802        C  0.10091113  0.84386778  0.23221303     0.36900
N803        N  0.98744317  0.84761944  0.39835004    -0.38000
N804        N  0.12113069  0.84475113  0.20505252    -0.38000
N805        N  0.05117676  0.75251080  0.37394227    -0.37400
N806        N  0.04844791  0.93265632  0.22419389    -0.37400
C807        C  0.07465385  0.08501893  0.29922459    -0.04100
C808        C  0.05201341  0.06709819  0.26981583    -0.01200
C809        C  0.02645122  0.03611290  0.27905793     0.03800
C810        C  0.02512400  0.02099891  0.31734895    -0.04100
C811        C  0.04801354  0.03864583  0.34680651    -0.01200
C812        C  0.07226667  0.07102221  0.33788552     0.03800
C813        C  0.05705658  0.07869731  0.22945512     0.38400
C814        C  0.04695411  0.02309904  0.38606385     0.38400
C815        C  0.09563627  0.08921423  0.36815350     0.36900
C816        C  0.00244466  0.01876718  0.24870768     0.36900
N817        N  0.11434357  0.10372253  0.39229162    -0.38000
N818        N  0.98304544  0.00501787  0.22467669    -0.38000
N819        N  0.04613434  0.01059375  0.41737635    -0.37400
N820        N  0.06154582  0.08734387  0.19714650    -0.37400
C821        C  0.81848404  0.87523091  0.67862940    -0.04100
C822        C  0.79554717  0.85645705  0.65017694    -0.01200
C823        C  0.77058813  0.82501230  0.66053116     0.03800
C824        C  0.76782068  0.81223512  0.70005790    -0.04100
C825        C  0.79194087  0.83136902  0.72835143    -0.01200
C826        C  0.81755417  0.86175422  0.71733355     0.03800
C827        C  0.79766956  0.86974080  0.61009324     0.38400
C828        C  0.78994096  0.82183259  0.76955232     0.38400
C829        C  0.84244123  0.88028539  0.74640077     0.36900
C830        C  0.74685483  0.80732246  0.63021990     0.36900
N831        N  0.86247263  0.89500622  0.76932662    -0.38000
N832        N  0.72794389  0.79342787  0.60587496    -0.38000
N833        N  0.78836676  0.81530776  0.80262904    -0.37400
N834        N  0.79949717  0.88020978  0.57807984    -0.37400
C835        C  0.81378583  0.01843635  0.68841382    -0.04100
C836        C  0.81119014  0.05013576  0.66224587    -0.01200
C837        C  0.78511791  0.08145304  0.67002329     0.03800
C838        C  0.76228567  0.08172581  0.70455801    -0.04100
C839        C  0.76701653  0.05127392  0.73191024    -0.01200
C840        C  0.79224128  0.01962000  0.72368111     0.03800
C841        C  0.83507012  0.05034088  0.62717836     0.38400
C842        C  0.74727343  0.05331292  0.76945738     0.38400
C843        C  0.79659911  0.98853196  0.75204557     0.36900
C844        C  0.78089482  0.11273031  0.64189341     0.36900
N845        N  0.79989007  0.96382844  0.77477110    -0.38000
N846        N  0.77741727  0.13764692  0.61941007    -0.38000
N847        N  0.73186407  0.05507364  0.79953963    -0.37400
N848        N  0.85444384  0.05069029  0.59940767    -0.37400
C849        C  0.21002388  0.10269453  0.86810941    -0.04100
C850        C  0.24233684  0.07682650  0.86862019    -0.01200
C851        C  0.24766851  0.05108811  0.90036926     0.03800
C852        C  0.22024415  0.05054199  0.93143896    -0.04100
C853        C  0.18672002  0.07472362  0.92956548    -0.01200
C854        C  0.18241694  0.10164722  0.89893246     0.03800
C855        C  0.27142112  0.07838629  0.83773577     0.38400
C856        C  0.15607837  0.07130882  0.95886262     0.38400
C857        C  0.14968037  0.12871906  0.89971080     0.36900
C858        C  0.28195997  0.02600063  0.90148743     0.36900
N859        N  0.12401233  0.15080027  0.90112801    -0.38000
N860        N  0.30919991  0.00581138  0.90223984    -0.38000
N861        N  0.13157398  0.06836894  0.98208675    -0.37400
N862        N  0.29486885  0.07978216  0.81332187    -0.37400
C863        C  0.23473223  0.05124304  0.07581611    -0.04100
C864        C  0.20756855  0.03906813  0.10468221    -0.01200
C865        C  0.19900694  0.06339562  0.13703476     0.03800
C866        C  0.21625772  0.10086131  0.14023195    -0.04100
C867        C  0.24386247  0.11279913  0.11179874    -0.01200
C868        C  0.25404029  0.08760108  0.08062016     0.03800
C869        C  0.18630691  0.00261277  0.10005699     0.38400
C870        C  0.26139031  0.15140273  0.11405961     0.38400
C871        C  0.28439901  0.09929418  0.05328593     0.36900
C872        C  0.17014627  0.05085220  0.16556744     0.36900
N873        N  0.30856348  0.10863347  0.03146520    -0.38000
N874        N  0.14713591  0.04083010  0.18829455    -0.38000
N875        N  0.27496775  0.18237541  0.11548788    -0.37400
N876        N  0.16931314  0.97355960  0.09643654    -0.37400
C877        C  0.62779315  0.79054751  0.86509075    -0.04100
C878        C  0.65314200  0.78937741  0.89777830    -0.01200
C879        C  0.64563305  0.81292636  0.93068188     0.03800
C880        C  0.61126514  0.83604380  0.93272228    -0.04100
C881        C  0.58518510  0.83632157  0.90076279    -0.01200
C882        C  0.59376407  0.81426457  0.86678432     0.03800
C883        C  0.68647780  0.76284138  0.89851988     0.38400
C884        C  0.54912360  0.85872960  0.90309159     0.38400
C885        C  0.56807848  0.81699231  0.83327179     0.36900
C886        C  0.67402235  0.81385796  0.96221386     0.36900
N887        N  0.54764899  0.81930700  0.80648942    -0.38000
N888        N  0.69659046  0.81453569  0.98734426    -0.38000
N889        N  0.52032609  0.87657135  0.90499768    -0.37400
N890        N  0.71295490  0.74165225  0.89925347    -0.37400
C891        C  0.60715970  0.83963913  0.07704497    -0.04100
C892        C  0.58037220  0.80991641  0.08765121    -0.01200
C893        C  0.58907764  0.78414289  0.11857758     0.03800
C894        C  0.62350448  0.78931849  0.14073433    -0.04100
C895        C  0.64878526  0.82086722  0.13212733    -0.01200
C896        C  0.64118897  0.84530623  0.09989644     0.03800
C897        C  0.54352264  0.80622639  0.06696650     0.38400
C898        C  0.68377426  0.82706664  0.15536552     0.38400
C899        C  0.66970810  0.87478062  0.08909041     0.36900
C900        C  0.56244190  0.75243149  0.12770963     0.36900
N901        N  0.69267799  0.89811508  0.08053727    -0.38000
N902        N  0.54116675  0.72708851  0.13481158    -0.38000
N903        N  0.71153715  0.83199761  0.17406313    -0.37400
N904        N  0.51400924  0.80360278  0.05061752    -0.37400
C905        C  0.85215034  0.25097261  0.88762008    -0.04100
C906        C  0.82211195  0.27925703  0.88403966    -0.01200
C907        C  0.78996590  0.27259020  0.85879820     0.03800
C908        C  0.78774558  0.23775067  0.83660061    -0.04100
C909        C  0.81811429  0.20975323  0.83975428    -0.01200
C910        C  0.84976371  0.21606756  0.86547920     0.03800
C911        C  0.82506628  0.31589382  0.90523376     0.38400
C912        C  0.81672326  0.17406551  0.81670273     0.38400
C913        C  0.87964334  0.18615154  0.86947499     0.36900
C914        C  0.76025072  0.30251710  0.85401250     0.36900
N915        N  0.90318874  0.16196894  0.87235850    -0.38000
N916        N  0.73667740  0.32649731  0.84986637    -0.38000
N917        N  0.81580137  0.14576384  0.79810838    -0.37400
N918        N  0.82758237  0.34516858  0.92207316    -0.37400
C919        C  0.06199425  0.24396677  0.84864870    -0.04100
C920        C  0.04003899  0.21324355  0.86521032    -0.01200
C921        C  0.00858439  0.22160562  0.89048737     0.03800
C922        C  0.99642169  0.26060114  0.89645464    -0.04100
C923        C  0.01860329  0.29149012  0.88052941    -0.01200
C924        C  0.05192300  0.28315719  0.85722554     0.03800
C925        C  0.04866973  0.17292650  0.85502539     0.38400
C926        C  0.00692808  0.33160254  0.88790187     0.38400
C927        C  0.07496624  0.31473044  0.84090896     0.36900
C928        C  0.98876196  0.19005360  0.91072984     0.36900
N929        N  0.09344034  0.33988977  0.82787912    -0.38000
N930        N  0.97337666  0.16511381  0.92757419    -0.38000
N931        N  0.99765600  0.36363667  0.89388962    -0.37400
N932        N  0.05500399  0.14069781  0.84671408    -0.37400
C933        C  0.84251000  0.62161231  0.10632394    -0.04100
C934        C  0.81765560  0.65355906  0.09747591    -0.01200
C935        C  0.78663405  0.66394329  0.12292571     0.03800
C936        C  0.77910362  0.64178917  0.15689657    -0.04100
C937        C  0.80202262  0.60815473  0.16419027    -0.01200
C938        C  0.83372685  0.59829633  0.13926272     0.03800
C939        C  0.82479105  0.67695937  0.06295399     0.38400
C940        C  0.79235564  0.58300316  0.19674866     0.38400
C941        C  0.85732279  0.56398117  0.14746035     0.36900
C942        C  0.76394168  0.69901633  0.11526618     0.36900
N943        N  0.87618817  0.53665067  0.15403904    -0.38000
N944        N  0.74599945  0.72710048  0.10930607    -0.38000
N945        N  0.78449062  0.56250566  0.22236799    -0.37400
N946        N  0.83015678  0.69533837  0.03516941    -0.37400
C947        C  0.98742096  0.63391584  0.10929555    -0.04100
C948        C  0.01923179  0.60742270  0.11044717    -0.01200
C949        C  0.05201721  0.61520161  0.13448147     0.03800
C950        C  0.05309881  0.64958010  0.15770173    -0.04100
C951        C  0.02074950  0.67567868  0.15672004    -0.01200
C952        C  0.98888951  0.66851690  0.13175610     0.03800
C953        C  0.01805433  0.57197993  0.08708601     0.38400
C954        C  0.01894289  0.70911442  0.18294303     0.38400
C955        C  0.95784993  0.69743187  0.12851631     0.36900
C956        C  0.08453156  0.58782909  0.13493434     0.36900
N957        N  0.93320639  0.72053296  0.12574342    -0.38000
N958        N  0.11025414  0.56572751  0.13531386    -0.38000
N959        N  0.01741807  0.73556300  0.20405736    -0.37400
N960        N  0.01709005  0.54383837  0.06825828    -0.37400
C961        C  0.07701067  0.81293901  0.71754637    -0.04100
C962        C  0.08045911  0.84672613  0.74123193    -0.01200
C963        C  0.05521792  0.87887813  0.73587467     0.03800
C964        C  0.02888309  0.87954943  0.70407614    -0.04100
C965        C  0.02641062  0.84632585  0.67938185    -0.01200
C966        C  0.04946012  0.81276799  0.68682532     0.03800
C967        C  0.11250061  0.85017618  0.76875136     0.38400
C968        C  0.00154375  0.84722127  0.64514372     0.38400
C969        C  0.04466276  0.77811398  0.66280142     0.36900
C970        C  0.05663301  0.91134719  0.76327234     0.36900
N971        N  0.04070085  0.75049477  0.64361366    -0.38000
N972        N  0.05792403  0.93723859  0.78506589    -0.38000
N973        N  0.98184364  0.84813065  0.61774181    -0.37400
N974        N  0.13872230  0.85361639  0.78979039    -0.37400
C975        C  0.07590892  0.09013502  0.70327584    -0.04100
C976        C  0.08879287  0.06178586  0.67596169    -0.01200
C977        C  0.06461546  0.02976277  0.66622012     0.03800
C978        C  0.02832330  0.02425614  0.68556049    -0.04100
C979        C  0.01496604  0.05329346  0.71208244    -0.01200
C980        C  0.03799053  0.08675915  0.71969844     0.03800
C981        C  0.12717127  0.06542410  0.65790992     0.38400
C982        C  0.97893560  0.04751593  0.73397642     0.38400
C983        C  0.02316918  0.11673679  0.74595209     0.36900
C984        C  0.07738236  0.00223522  0.63646056     0.36900
N985        N  0.01085310  0.14074943  0.76648114    -0.38000
N986        N  0.08764939  0.98030155  0.61274700    -0.38000
N987        N  0.95034690  0.04274874  0.75159506    -0.37400
N988        N  0.15792129  0.06827345  0.64384447    -0.37400
C989        C  0.76608860  0.80525518  0.29346630    -0.04100
C990        C  0.75880495  0.83049435  0.32538320    -0.01200
C991        C  0.78259613  0.86369778  0.33155688     0.03800
C992        C  0.81424414  0.87181375  0.30612934    -0.04100
C993        C  0.82276042  0.84545037  0.27534480    -0.01200
C994        C  0.79849436  0.81261879  0.26872889     0.03800
C995        C  0.72686130  0.82216075  0.35211687     0.38400
C996        C  0.85548835  0.85304508  0.24931231     0.38400
C997        C  0.80527357  0.78802823  0.23477009     0.36900
C998        C  0.77439239  0.88949954  0.36422123     0.36900
N999        N  0.81045383  0.76863022  0.20749689    -0.38000
N1000       N  0.76748570  0.90977728  0.39044064    -0.38000
N1001       N  0.88175364  0.85906731  0.22875040    -0.37400
N1002       N  0.70149188  0.81545907  0.37355055    -0.37400
C1003       C  0.81300803  0.01710625  0.29590632    -0.04100
C1004       C  0.81456241  0.03749677  0.26017663    -0.01200
C1005       C  0.79102753  0.07102806  0.25458132     0.03800
C1006       C  0.76550722  0.08398920  0.28451395    -0.04100
C1007       C  0.76409412  0.06374349  0.32020676    -0.01200
C1008       C  0.78818958  0.03079012  0.32610617     0.03800
C1009       C  0.83915008  0.02306354  0.22866338     0.38400
C1010       C  0.73751489  0.07667668  0.35076855     0.38400
C1011       C  0.78768597  0.01115048  0.36350096     0.36900
C1012       C  0.79150272  0.09104782  0.21731890     0.36900
N1013       N  0.78737495  0.99584925  0.39353571    -0.38000
N1014       N  0.79161734  0.10700415  0.18760227    -0.38000
N1015       N  0.71615879  0.08692088  0.37504015    -0.37400
N1016       N  0.85865268  0.01148168  0.20345683    -0.37400
C1017       C  0.62905381  0.10431065  0.86525023    -0.04100
C1018       C  0.59588072  0.07946018  0.86628767    -0.01200
C1019       C  0.58945343  0.05442397  0.89857454     0.03800
C1020       C  0.61697763  0.05275790  0.92930116    -0.04100
C1021       C  0.65109148  0.07614045  0.92715123    -0.01200
C1022       C  0.65646601  0.10257787  0.89609083     0.03800
C1023       C  0.56739985  0.08088311  0.83501451     0.38400
C1024       C  0.68114639  0.07259223  0.95682884     0.38400
C1025       C  0.69063395  0.12785840  0.89588965     0.36900
C1026       C  0.55369021  0.03165762  0.90098074     0.36900
N1027       N  0.71762312  0.14833604  0.89595171    -0.38000
N1028       N  0.52508654  0.01360495  0.90305338    -0.38000
N1029       N  0.70508324  0.06958890  0.98047691    -0.37400
N1030       N  0.54463219  0.08196276  0.81008341    -0.37400
C1031       C  0.61863426  0.09980501  0.13990279    -0.04100
C1032       C  0.58603696  0.10722065  0.11573665    -0.01200
C1033       C  0.57900870  0.08344183  0.08275094     0.03800
C1034       C  0.60467761  0.05223657  0.07362106    -0.04100
C1035       C  0.63639963  0.04391969  0.09878692    -0.01200
C1036       C  0.64309106  0.06736758  0.13198095     0.03800
C1037       C  0.55950228  0.13909687  0.12506380     0.38400
C1038       C  0.66386327  0.01286116  0.08923924     0.38400
C1039       C  0.67662791  0.05941171  0.15674109     0.36900
C1040       C  0.54559360  0.09129778  0.05790365     0.36900
N1041       N  0.70330694  0.05309749  0.17652713    -0.38000
N1042       N  0.51907272  0.09751451  0.03788488    -0.38000
N1043       N  0.68594506  0.98826199  0.08163930    -0.37400
N1044       N  0.53819238  0.16440154  0.13258150    -0.37400
C1045       C  0.24122648  0.83857043  0.92916158    -0.04100
C1046       C  0.20311888  0.83978731  0.91349575    -0.01200
C1047       C  0.19198609  0.81349435  0.88379509     0.03800
C1048       C  0.21982151  0.78694085  0.86720446    -0.04100
C1049       C  0.25856910  0.78671546  0.88267257    -0.01200
C1050       C  0.26873720  0.81180925  0.91395156     0.03800
C1051       C  0.17440995  0.86702885  0.92943704     0.38400
C1052       C  0.28795766  0.75959070  0.86813828     0.38400
C1053       C  0.30737170  0.80948731  0.93139227     0.36900
C1054       C  0.15102684  0.81326325  0.87228497     0.36900
N1055       N  0.33802614  0.80753485  0.94561765    -0.38000
N1056       N  0.11813530  0.81286136  0.86406641    -0.38000
N1057       N  0.31166421  0.73812709  0.85673958    -0.37400
N1058       N  0.15150903  0.88872504  0.94197209    -0.37400
C1059       C  0.23156153  0.83632617  0.07137755    -0.04100
C1060       C  0.19879185  0.81106994  0.07037852    -0.01200
C1061       C  0.19127842  0.78551651  0.10155175     0.03800
C1062       C  0.21487549  0.78658455  0.13547938    -0.04100
C1063       C  0.24701993  0.81272397  0.13701393    -0.01200
C1064       C  0.25557644  0.83715982  0.10486595     0.03800
C1065       C  0.17227292  0.81157184  0.03727888     0.38400
C1066       C  0.27091137  0.81517800  0.17183835     0.38400
C1067       C  0.28952658  0.86262872  0.10595114     0.36900
C1068       C  0.16008017  0.75686574  0.09765763     0.36900
N1069       N  0.31659434  0.88298222  0.10676835    -0.38000
N1070       N  0.13536788  0.73393320  0.09439004    -0.38000
N1071       N  0.29004531  0.81723025  0.19958184    -0.37400
N1072       N  0.15118021  0.81188785  0.01090951    -0.37400
loop_ 
_geom_bond_atom_site_label_1 
_geom_bond_atom_site_label_2 
_geom_bond_distance 
_geom_bond_site_symmetry_2 
_ccdc_geom_bond_type 
C1            C2   1.406       .  A
C1            C6   1.396       .  A
C1         C1059   1.491       .  S
C2            C3   1.419       .  A
C2            H7   1.080       .  S
C3            C4   1.418   1_554  A
C3           C68   1.512       .  S
C4            C5   1.403       .  A
C4            H8   1.079       .  S
C5            C6   1.392   1_556  A
C5         C1045   1.488       .  S
C6            H9   1.085       .  S
C10          C11   1.394       .  A
C10          C15   1.400   1_545  A
C10        C1034   1.491       .  S
C11          C12   1.397   1_554  A
C11          H16   1.084       .  S
C12          C13   1.411   1_545  A
C12        C1020   1.500       .  S
C13          C14   1.427   1_556  A
C13          H17   1.077       .  S
C14          C15   1.417       .  A
C14          C57   1.524       .  S
C15          H18   1.076       .  S
C19          C20   1.404       .  A
C19          C24   1.396       .  A
C19        C1003   1.489   1_565  S
C20          C21   1.419       .  A
C20          H25   1.074   1_565  S
C21          C22   1.419       .  A
C21          C86   1.517       .  S
C22          C23   1.407       .  A
C22          H26   1.078       .  S
C23          C24   1.398       .  A
C23         C992   1.495       .  S
C24          H27   1.085       .  S
C28          C29   1.407   1_455  A
C28          C33   1.399       .  A
C28         C978   1.498   1_565  S
C29          C30   1.415       .  A
C29          H34   1.081   1_565  S
C30          C31   1.416       .  A
C30          C77   1.509       .  S
C31          C32   1.405   1_655  A
C31          H35   1.080       .  S
C32          C33   1.399       .  A
C32         C964   1.498       .  S
C33          H36   1.083       .  S
C37          C38   1.398       .  A
C37          C42   1.401       .  A
C37         C947   1.491       .  S
C38          C39   1.399       .  A
C38          H43   1.084       .  S
C39          C40   1.410       .  A
C39         C933   1.501       .  S
C40          C41   1.420       .  A
C40          H44   1.080       .  S
C41          C42   1.415       .  A
C41          C93   1.512   1_554  S
C42          H45   1.080       .  S
C46          C47   1.400       .  A
C46          C51   1.397       .  A
C46         C922   1.484       .  S
C47          C48   1.415       .  A
C47          H52   1.079       .  S
C48          C49   1.423       .  A
C48         C104   1.513   1_556  S
C49          C50   1.409       .  A
C49          H53   1.080       .  S
C50          C51   1.398       .  A
C50         C905   1.498       .  S
C51          H54   1.084       .  S
C55          C56   1.406       .  A
C55          C60   1.394       .  A
C55         C891   1.498       .  S
C56          C57   1.425       .  A
C56          H61   1.076       .  S
C57          C58   1.418   1_554  A
C58          C59   1.406       .  A
C58          H62   1.077       .  S
C59          C60   1.397   1_556  A
C59         C880   1.493       .  S
C60          H63   1.085       .  S
C64          C65   1.397   1_556  A
C64          C69   1.402   1_545  A
C64         C852   1.493       .  S
C65          C66   1.398       .  A
C65          H70   1.084       .  S
C66          C67   1.409   1_545  A
C66         C863   1.501       .  S
C67          C68   1.419       .  A
C67          H71   1.080       .  S
C68          C69   1.417   1_554  A
C69          H72   1.079       .  S
C73          C74   1.399       .  A
C73          C78   1.405       .  A
C73         C835   1.491   1_565  S
C74          C75   1.396       .  A
C74          H79   1.085       .  S
C75          C76   1.404       .  A
C75         C821   1.489       .  S
C76          C77   1.417       .  A
C76          H80   1.080       .  S
C77          C78   1.417       .  A
C78          H81   1.080   1_565  S
C82          C83   1.396       .  A
C82          C87   1.406   1_455  A
C82         C810   1.491   1_565  S
C83          C84   1.399       .  A
C83          H88   1.085       .  S
C84          C85   1.405   1_455  A
C84         C793   1.493       .  S
C85          C86   1.418       .  A
C85          H89   1.078       .  S
C86          C87   1.420       .  A
C87          H90   1.074   1_565  S
C91          C92   1.405       .  A
C91          C96   1.399       .  A
C91         C765   1.494       .  S
C92          C93   1.417       .  A
C92          H97   1.080       .  S
C93          C94   1.419       .  A
C94          C95   1.406       .  A
C94          H98   1.080       .  S
C95          C96   1.397       .  A
C95         C779   1.497       .  S
C96          H99   1.084       .  S
C100        C101   1.398       .  A
C100        C105   1.403       .  A
C100        C737   1.492       .  S
C101        C102   1.399       .  A
C101        H106   1.084       .  S
C102        C103   1.408       .  A
C102        C751   1.502       .  S
C103        C104   1.422       .  A
C103        H107   1.079       .  S
C104        C105   1.414       .  A
C105        H108   1.080       .  S
C109        C110   1.399       .  A
C109        C114   1.406       .  A
C109        C723   1.495       .  S
C110        C111   1.396       .  A
C110        H115   1.084       .  S
C111        C112   1.404       .  A
C111        C709   1.491       .  S
C112        C113   1.417       .  A
C112        H116   1.080       .  S
C113        C114   1.417       .  A
C113        C234   1.510       .  S
C114        H117   1.080       .  S
C118        C119   1.406       .  A
C118        C123   1.397       .  A
C118        C698   1.491       .  S
C119        C120   1.419       .  A
C119        H124   1.076       .  S
C120        C121   1.421       .  A
C120        C327   1.524       .  S
C121        C122   1.406       .  A
C121        H125   1.075       .  S
C122        C123   1.397       .  A
C122        C681   1.496       .  S
C123        H126   1.084       .  S
C127        C128   1.408       .  A
C127        C132   1.398       .  A
C127        C653   1.497       .  S
C128        C129   1.420       .  A
C128        H133   1.079       .  S
C129        C130   1.416       .  A
C129        C202   1.514       .  S
C130        C131   1.403       .  A
C130        H134   1.079       .  S
C131        C132   1.394       .  A
C131        C667   1.491       .  S
C132        H135   1.084       .  S
O136        C152   1.274       .  A
O136       Zn142   2.011       .  S
C137        C712   1.511       .  S
C137        O153   1.275       .  A
C137        O150   1.276       .  A
O138        C151   1.276       .  A
O138       Cd145   2.088       .  S
O139        C157   1.276       .  A
O139       Cd148   2.071       .  S
O140        C154   1.273       .  A
O140       Cd144   2.068       .  S
O141        C152   1.275       .  A
O141       Cd144   2.077       .  S
Zn142       O153   2.024       .  S
Zn142       O155   2.040       .  S
Zn142       O147   1.936       .  S
O143        C154   1.275       .  A
O143       Cd148   2.084       .  S
Cd144       O146   2.081       .  S
Cd144       O147   2.009       .  S
Cd145       O149   2.068       .  S
Cd145       O158   2.079       .  S
Cd145       O147   2.006       .  S
O146        C156   1.276       .  A
O147       Cd148   2.010       .  S
Cd148       O150   2.086       .  S
O149        C156   1.275       .  A
C151        C639   1.508       .  S
C151        O155   1.278       .  A
C152        C670   1.499       .  S
C154        C919   1.480       .  S
C156        C975   1.490       .  S
C157        C849   1.486       .  S
C157        O158   1.276       .  A
C159        C160   1.406       .  A
C159        C164   1.400       .  A
C159        C628   1.495       .  S
C160        C161   1.417       .  A
C160        H165   1.080       .  S
C161        C162   1.419       .  A
C161        C252   1.514       .  S
C162        C163   1.407       .  A
C162        H166   1.080       .  S
C163        C164   1.399       .  A
C163        C611   1.499       .  S
C164        H167   1.084       .  S
C168        C169   1.408       .  A
C168        C173   1.398       .  A
C168        C642   1.501       .  S
C169        C170   1.421       .  A
C169        H174   1.078       .  S
C170        C171   1.422       .  A
C170        C286   1.521       .  S
C171        C172   1.408       .  A
C171        H175   1.079       .  S
C172        C173   1.399       .  A
C172        C597   1.498       .  S
C173        H176   1.084       .  S
O177        C193   1.271       .  A
O177       Zn183   1.985       .  S
C178        C625   1.498       .  S
C178        O194   1.271       .  A
C178        O191   1.278       .  A
O179        C192   1.279       .  A
O179       Cd186   2.108       .  S
O180        C198   1.275       .  A
O180       Cd189   2.072       .  S
O181        C195   1.278       .  A
O181       Cd185   2.093       .  S
O182        C193   1.279       .  A
O182       Cd185   2.104       .  S
Zn183       O194   2.000       .  S
Zn183       O196   2.001       .  S
Zn183       O188   1.931       .  S
O184        C195   1.277       .  A
O184       Cd189   2.083       .  S
Cd185       O187   2.091       .  S
Cd185       O188   2.017       .  S
Cd186       O190   2.087       .  S
Cd186       O199   2.087       .  S
Cd186       O188   2.015       .  S
O187        C197   1.279       .  A
O188       Cd189   2.016       .  S
Cd189       O191   2.097       .  S
O190        C197   1.277       .  A
C192        C600   1.504       .  S
C192        O196   1.272       .  A
C193        C586   1.495       .  S
C195        C908   1.493       .  S
C197       C1017   1.496       .  S
C198        C838   1.489       .  S
C198        O199   1.279       .  A
C200        C201   1.406       .  A
C200        C205   1.398       .  A
C200        C558   1.491       .  S
C201        C202   1.417       .  A
C201        H206   1.079       .  S
C202        C203   1.419       .  A
C203        C204   1.403       .  A
C203        H207   1.079       .  S
C204        C205   1.394       .  A
C204        C569   1.485       .  S
C205        H208   1.084       .  S
O209        C225   1.271       .  A
O209       Zn215   1.998       .  S
C210        C961   1.492       .  S
C210        O226   1.274       .  A
C210        O223   1.277       .  A
O211        C224   1.277       .  A
O211       Cd218   2.099       .  S
O212        C230   1.275       .  A
O212       Cd221   2.069       .  S
O213        C227   1.276       .  A
O213       Cd217   2.080       .  S
O214        C225   1.276       .  A
O214       Cd217   2.087       .  S
Zn215       O226   2.010       .  S
Zn215       O228   2.014       .  S
Zn215       O220   1.929       .  S
O216        C227   1.275       .  A
O216       Cd221   2.080       .  S
Cd217       O219   2.085       .  S
Cd217       O220   2.013       .  S
Cd218       O222   2.065       .  S
Cd218       O231   2.076       .  S
Cd218       O220   2.007       .  S
O219        C229   1.277       .  A
O220       Cd221   2.009       .  S
Cd221       O223   2.089       .  S
O222        C229   1.275       .  A
C224        C782   1.507       .  S
C224        O228   1.273       .  A
C225       C1048   1.511       .  S
C227        C541   1.493       .  S
C229        C726   1.489       .  S
C230        C572   1.478       .  S
C230        O231   1.275       .  A
C232        C233   1.406       .  A
C232        C237   1.399       .  A
C232        C530   1.496       .  S
C233        C234   1.416       .  A
C233        H238   1.080       .  S
C234        C235   1.416       .  A
C235        C236   1.403       .  A
C235        H239   1.079       .  S
C236        C237   1.398       .  A
C236        C583   1.491       .  S
C237        H240   1.084       .  S
C241        C242   1.409       .  A
C241        C246   1.401       .  A
C241        C544   1.504       .  S
C242        C243   1.420       .  A
C242        H247   1.077       .  S
C243        C244   1.421       .  A
C243        C316   1.524       .  S
C244        C245   1.405       .  A
C244        H248   1.076       .  S
C245        C246   1.398       .  A
C245        C513   1.494       .  S
C246        H249   1.084       .  S
C250        C251   1.409       .  A
C250        C255   1.398       .  A
C250        C485   1.498       .  S
C251        C252   1.421       .  A
C251        H256   1.080       .  S
C252        C253   1.417       .  A
C253        C254   1.403       .  A
C253        H257   1.079       .  S
C254        C255   1.397       .  A
C254        C499   1.494       .  S
C255        H258   1.084       .  S
O259        C275   1.271       .  A
O259       Zn265   2.001       .  S
C260        C877   1.492       .  S
C260        O276   1.271       .  A
C260        O273   1.276       .  A
O261        C274   1.277       .  A
O261       Cd268   2.092       .  S
O262        C280   1.275       .  A
O262       Cd271   2.074       .  S
O263        C277   1.277       .  A
O263       Cd267   2.089       .  S
O264        C275   1.278       .  A
O264       Cd267   2.102       .  S
Zn265       O276   1.990       .  S
Zn265       O278   2.009       .  S
Zn265       O270   1.927       .  S
O266        C277   1.277       .  A
O266       Cd271   2.080       .  S
Cd267       O269   2.075       .  S
Cd267       O270   2.009       .  S
Cd268       O272   2.082       .  S
Cd268       O281   2.081       .  S
Cd268       O270   2.011       .  S
O269        C279   1.276       .  A
O270       Cd271   2.011       .  S
Cd271       O273   2.086       .  S
O272        C279   1.277       .  A
C274        C768   1.500       .  S
C274        O278   1.273       .  A
C275        C824   1.518       .  S
C277        C516   1.487       .  S
C279        C488   1.489       .  S
C280        C527   1.489       .  S
C280        O281   1.277       .  A
C282        C283   1.395       .  A
C282        C287   1.405       .  A
C282        C471   1.494       .  S
C283        C284   1.401       .  A
C283        H288   1.084       .  S
C284        C285   1.411       .  A
C284        C457   1.504       .  S
C285        C286   1.421       .  A
C285        H289   1.079       .  S
C286        C287   1.421       .  A
C287        H290   1.078       .  S
O291        C307   1.276       .  A
O291       Zn297   2.023       .  S
C292        C460   1.498       .  S
C292        O308   1.278       .  A
C292        O305   1.275       .  A
O293        C306   1.277       .  A
O293       Cd300   2.090       .  S
O294        C312   1.274       .  A
O294       Cd303   2.063       .  S
O295        C309   1.273       .  A
O295       Cd299   2.067       .  S
O296        C307   1.274       .  A
O296       Cd299   2.067       .  S
Zn297       O308   2.044       .  S
Zn297       O310   2.026       .  S
Zn297       O302   1.940       .  S
O298        C309   1.274       .  A
O298       Cd303   2.072       .  S
Cd299       O301   2.078       .  S
Cd299       O302   2.008       .  S
Cd300       O304   2.059       .  S
Cd300       O313   2.082       .  S
Cd300       O302   2.008       .  S
O301        C311   1.275       .  A
O302       Cd303   2.001       .  S
Cd303       O305   2.073       .  S
O304        C311   1.273       .  A
C306        C614   1.506       .  S
C306        O310   1.276       .  A
C307        C443   1.503       .  S
C309       C1031   1.482       .  S
C311        C740   1.482       .  S
C312       C1006   1.480       .  S
C312        O313   1.276       .  A
C314        C315   1.406       .  A
C314        C319   1.397       .  A
C314        C429   1.496       .  S
C315        C316   1.422       .  A
C315        H320   1.076       .  S
C316        C317   1.423       .  A
C317        C318   1.406       .  A
C317        H321   1.077       .  S
C318        C319   1.395       .  A
C318        C415   1.496       .  S
C319        H322   1.085       .  S
C323        C324   1.394       .  A
C323        C328   1.407       .  A
C323        C401   1.492       .  S
C324        C325   1.391       .  A
C324        H329   1.085       .  S
C325        C326   1.402       .  A
C325        C446   1.488       .  S
C326        C327   1.421       .  A
C326        H330   1.075       .  S
C327        C328   1.424       .  A
C328        H331   1.076       .  S
O332        C348   1.269       .  A
O332       Zn338   1.980       .  S
C333        C432   1.501       .  S
C333        O349   1.270       .  A
C333        O346   1.277       .  A
O334        C347   1.277       .  A
O334       Cd341   2.094       .  S
O335        C353   1.275       .  A
O335       Cd344   2.072       .  S
O336        C350   1.279       .  A
O336       Cd340   2.092       .  S
O337        C348   1.280       .  A
O337       Cd340   2.109       .  S
Zn338       O349   1.989       .  S
Zn338       O351   1.987       .  S
Zn338       O343   1.922       .  S
O339        C350   1.277       .  A
O339       Cd344   2.075       .  S
Cd340       O342   2.099       .  S
Cd340       O343   2.018       .  S
Cd341       O345   2.081       .  S
Cd341       O354   2.088       .  S
Cd341       O343   2.011       .  S
O342        C352   1.279       .  A
O343       Cd344   2.013       .  S
Cd344       O346   2.102       .  S
O345        C352   1.277       .  A
C347        C404   1.498       .  S
C347        O351   1.270       .  A
C348        C502   1.496       .  S
C350        C989   1.489       .  S
C352        C936   1.495       .  S
C353        C894   1.487       .  S
C353        O354   1.278       .  A
O355        C371   1.272       .  A
O355       Zn361   1.997       .  S
C356        C796   1.498       .  S
C356        O372   1.272       .  A
C356        O369   1.276       .  A
O357        C370   1.277       .  A
O357       Cd364   2.092       .  S
O358        C376   1.275       .  A
O358       Cd367   2.078       .  S
O359        C373   1.275       .  A
O359       Cd363   2.069       .  S
O360        C371   1.275       .  A
O360       Cd363   2.088       .  S
Zn361       O372   1.998       .  S
Zn361       O374   1.991       .  S
Zn361       O366   1.920       .  S
O362        C373   1.276       .  A
O362       Cd367   2.072       .  S
Cd363       O365   2.067       .  S
Cd363       O366   2.009       .  S
Cd364       O368   2.085       .  S
Cd364       O377   2.083       .  S
Cd364       O366   2.012       .  S
O365        C375   1.275       .  A
O366       Cd367   2.009       .  S
Cd367       O369   2.092       .  S
O368        C375   1.277       .  A
C370       C1062   1.492       .  S
C370        O374   1.272       .  A
C371        C950   1.495       .  S
C373        C555   1.484       .  S
C375        C695   1.483       .  S
C376        C418   1.485       .  S
C376        O377   1.277       .  A
O378        C394   1.273       .  A
O378       Zn384   2.004       .  S
C379        C656   1.489       .  S
C379        O395   1.272       .  A
C379        O392   1.277       .  A
O380        C393   1.277       .  A
O380       Cd387   2.098       .  S
O381        C399   1.277       .  A
O381       Cd390   2.088       .  S
O382        C396   1.278       .  A
O382       Cd386   2.093       .  S
O383        C394   1.277       .  A
O383       Cd386   2.097       .  S
Zn384       O395   1.994       .  S
Zn384       O397   2.014       .  S
Zn384       O389   1.929       .  S
O385        C396   1.278       .  A
O385       Cd390   2.085       .  S
Cd386       O388   2.073       .  S
Cd386       O389   2.016       .  S
Cd387       O391   2.086       .  S
Cd387       O400   2.082       .  S
Cd387       O389   2.013       .  S
O388        C398   1.276       .  A
O389       Cd390   2.015       .  S
Cd390       O392   2.098       .  S
O391        C398   1.278       .  A
C393        C474   1.516       .  S
C393        O397   1.272       .  A
C394        C684   1.505       .  S
C396        C754   1.497       .  S
C398        C866   1.492       .  S
C399        C807   1.485       .  S
C399        O400   1.276       .  A
C401        C402   1.411       .  A
C401        C406   1.412       .  A
C402        C403   1.415       .  A
C402        C407   1.450       .  S
C403        C404   1.418       .  A
C403        C410   1.450       .  S
C404        C405   1.422       .  A
C405        C406   1.409       .  A
C405        C408   1.454       .  S
C406        C409   1.454       .  S
C407        N414   1.157       .  T
C408        N413   1.158       .  T
C409        N411   1.157       .  T
C410        N412   1.157       .  T
C415        C416   1.415       .  A
C415        C420   1.415       .  A
C416        C417   1.413       .  A
C416        C421   1.450       .  S
C417        C418   1.413       .  A
C417        C424   1.452       .  S
C418        C419   1.411       .  A
C419        C420   1.413       .  A
C419        C422   1.450       .  S
C420        C423   1.451       .  S
C421        N428   1.157       .  T
C422        N427   1.157       .  T
C423        N425   1.157       .  T
C424        N426   1.158       .  T
C429        C430   1.413       .  A
C429        C434   1.413       .  A
C430        C431   1.407       .  A
C430        C435   1.454       .  S
C431        C432   1.421       .  A
C431        C438   1.454       .  S
C432        C433   1.419       .  A
C433        C434   1.419       .  A
C433        C436   1.450       .  S
C434        C437   1.450       .  S
C435        N442   1.157       .  T
C436        N441   1.157       .  T
C437        N439   1.157       .  T
C438        N440   1.158       .  T
C443        C444   1.422       .  A
C443        C448   1.424       .  A
C444        C445   1.410       .  A
C444        C449   1.452       .  S
C445        C446   1.410       .  A
C445        C452   1.452       .  S
C446        C447   1.408       .  A
C447        C448   1.413       .  A
C447        C450   1.452       .  S
C448        C451   1.452       .  S
C449        N456   1.158       .  T
C450        N455   1.157       .  T
C451        N453   1.158       .  T
C452        N454   1.157       .  T
C457        C458   1.418       .  A
C457        C462   1.416       .  A
C458        C459   1.416       .  A
C458        C463   1.451       .  S
C459        C460   1.416       .  A
C459        C466   1.451       .  S
C460        C461   1.417       .  A
C461        C462   1.413       .  A
C461        C464   1.452       .  S
C462        C465   1.451       .  S
C463        N470   1.157       .  T
C464        N469   1.158       .  T
C465        N467   1.157       .  T
C466        N468   1.157       .  T
C471        C472   1.406       .  A
C471        C476   1.410       .  A
C472        C473   1.414       .  A
C472        C477   1.453       .  S
C473        C474   1.429       .  A
C473        C480   1.451       .  S
C474        C475   1.425       .  A
C475        C476   1.417       .  A
C475        C478   1.451       .  S
C476        C479   1.452       .  S
C477        N484   1.157       .  T
C478        N483   1.158       .  T
C479        N481   1.157       .  T
C480        N482   1.158       .  T
C485        C486   1.415       .  A
C485        C490   1.416       .  A
C486        C487   1.412       .  A
C486        C491   1.451       .  S
C487        C488   1.413       .  A
C487        C494   1.451       .  S
C488        C489   1.415       .  A
C489        C490   1.414       .  A
C489        C492   1.452       .  S
C490        C493   1.451       .  S
C491        N498   1.157       .  T
C492        N497   1.158       .  T
C493        N495   1.157       .  T
C494        N496   1.157       .  T
C499        C500   1.412       .  A
C499        C504   1.414       .  A
C500        C501   1.409       .  A
C500        C505   1.453       .  S
C501        C502   1.421       .  A
C501        C508   1.453       .  S
C502        C503   1.416       .  A
C503        C504   1.415       .  A
C503        C506   1.449       .  S
C504        C507   1.451       .  S
C505        N512   1.157       .  T
C506        N511   1.157       .  T
C507        N509   1.157       .  T
C508        N510   1.158       .  T
C513        C514   1.412       .  A
C513        C518   1.414       .  A
C514        C515   1.414       .  A
C514        C519   1.450       .  S
C515        C516   1.414       .  A
C515        C522   1.451       .  S
C516        C517   1.411       .  A
C517        C518   1.413       .  A
C517        C520   1.450       .  S
C518        C521   1.450       .  S
C519        N526   1.157       .  T
C520        N525   1.157       .  T
C521        N523   1.157       .  T
C522        N524   1.157       .  T
C527        C528   1.414       .  A
C527        C532   1.412       .  A
C528        C529   1.412       .  A
C528        C533   1.452       .  S
C529        C530   1.417       .  A
C529        C536   1.452       .  S
C530        C531   1.415       .  A
C531        C532   1.413       .  A
C531        C534   1.451       .  S
C532        C535   1.450       .  S
C533        N540   1.158       .  T
C534        N539   1.157       .  T
C535        N537   1.157       .  T
C536        N538   1.157       .  T
C541        C542   1.414       .  A
C541        C546   1.412       .  A
C542        C543   1.412       .  A
C542        C547   1.450       .  S
C543        C544   1.418       .  A
C543        C550   1.451       .  S
C544        C545   1.418       .  A
C545        C546   1.415       .  A
C545        C548   1.449       .  S
C546        C549   1.451       .  S
C547        N554   1.157       .  T
C548        N553   1.157       .  T
C549        N551   1.157       .  T
C550        N552   1.157       .  T
C555        C556   1.414       .  A
C555        C560   1.412       .  A
C556        C557   1.410       .  A
C556        C561   1.453       .  S
C557        C558   1.415       .  A
C557        C564   1.452       .  S
C558        C559   1.415       .  A
C559        C560   1.411       .  A
C559        C562   1.451       .  S
C560        C563   1.451       .  S
C561        N568   1.158       .  T
C562        N567   1.157       .  T
C563        N565   1.157       .  T
C564        N566   1.157       .  T
C569        C570   1.414       .  A
C569        C574   1.410       .  A
C570        C571   1.412       .  A
C570        C575   1.450       .  S
C571        C572   1.409       .  A
C571        C578   1.450       .  S
C572        C573   1.413       .  A
C573        C574   1.409       .  A
C573        C576   1.452       .  S
C574        C577   1.451       .  S
C575        N582   1.157       .  T
C576        N581   1.158       .  T
C577        N579   1.157       .  T
C578        N580   1.157       .  T
C583        C584   1.414       .  A
C583        C588   1.410       .  A
C584        C585   1.415       .  A
C584        C589   1.451       .  S
C585        C586   1.416       .  A
C585        C592   1.450       .  S
C586        C587   1.420       .  A
C587        C588   1.408       .  A
C587        C590   1.453       .  S
C588        C591   1.453       .  S
C589        N596   1.157       .  T
C590        N595   1.158       .  T
C591        N593   1.157       .  T
C592        N594   1.157       .  T
C597        C598   1.413       .  A
C597        C602   1.412       .  A
C598        C599   1.418       .  A
C598        C603   1.450       .  S
C599        C600   1.419       .  A
C599        C606   1.450       .  S
C600        C601   1.421       .  A
C601        C602   1.412       .  A
C601        C604   1.453       .  S
C602        C605   1.453       .  S
C603        N610   1.157       .  T
C604        N609   1.158       .  T
C605        N607   1.157       .  T
C606        N608   1.157       .  T
C611        C612   1.413       .  A
C611        C616   1.414       .  A
C612        C613   1.416       .  A
C612        C617   1.451       .  S
C613        C614   1.420       .  A
C613        C620   1.450       .  S
C614        C615   1.421       .  A
C615        C616   1.413       .  A
C615        C618   1.453       .  S
C616        C619   1.452       .  S
C617        N624   1.157       .  T
C618        N623   1.158       .  T
C619        N621   1.157       .  T
C620        N622   1.158       .  T
C625        C626   1.417       .  A
C625        C630   1.420       .  A
C626        C627   1.416       .  A
C626        C631   1.450       .  S
C627        C628   1.413       .  A
C627        C634   1.451       .  S
C628        C629   1.413       .  A
C629        C630   1.411       .  A
C629        C632   1.453       .  S
C630        C633   1.453       .  S
C631        N638   1.157       .  T
C632        N637   1.157       .  T
C633        N635   1.158       .  T
C634        N636   1.157       .  T
C639        C640   1.420       .  A
C639        C644   1.421       .  A
C640        C641   1.414       .  A
C640        C645   1.452       .  S
C641        C642   1.414       .  A
C641        C648   1.452       .  S
C642        C643   1.413       .  A
C643        C644   1.417       .  A
C643        C646   1.451       .  S
C644        C647   1.450       .  S
C645        N652   1.157       .  T
C646        N651   1.157       .  T
C647        N649   1.157       .  T
C648        N650   1.157       .  T
C653        C654   1.416       .  A
C653        C658   1.417       .  A
C654        C655   1.407       .  A
C654        C659   1.453       .  S
C655        C656   1.413       .  A
C655        C662   1.452       .  S
C656        C657   1.412       .  A
C657        C658   1.416       .  A
C657        C660   1.450       .  S
C658        C661   1.450       .  S
C659        N666   1.157       .  T
C660        N665   1.157       .  T
C661        N663   1.157       .  T
C662        N664   1.157       .  T
C667        C668   1.412       .  A
C667        C672   1.412       .  A
C668        C669   1.413       .  A
C668        C673   1.452       .  S
C669        C670   1.420       .  A
C669        C676   1.451       .  S
C670        C671   1.421       .  A
C671        C672   1.410       .  A
C671        C674   1.453       .  S
C672        C675   1.453       .  S
C673        N680   1.157       .  T
C674        N679   1.158       .  T
C675        N677   1.157       .  T
C676        N678   1.158       .  T
C681        C682   1.413       .  A
C681        C686   1.411       .  A
C682        C683   1.417       .  A
C682        C687   1.451       .  S
C683        C684   1.421       .  A
C683        C690   1.450       .  S
C684        C685   1.422       .  A
C685        C686   1.410       .  A
C685        C688   1.453       .  S
C686        C689   1.452       .  S
C687        N694   1.157       .  T
C688        N693   1.158       .  T
C689        N691   1.157       .  T
C690        N692   1.157       .  T
C695        C696   1.412       .  A
C695        C700   1.412       .  A
C696        C697   1.412       .  A
C696        C701   1.451       .  S
C697        C698   1.413       .  A
C697        C704   1.450       .  S
C698        C699   1.414       .  A
C699        C700   1.411       .  A
C699        C702   1.452       .  S
C700        C703   1.452       .  S
C701        N708   1.157       .  T
C702        N707   1.157       .  T
C703        N705   1.157       .  T
C704        N706   1.157       .  T
C709        C710   1.408       .  A
C709        C714   1.410       .  A
C710        C711   1.415       .  A
C710        C715   1.452       .  S
C711        C712   1.426       .  A
C711        C718   1.451       .  S
C712        C713   1.425       .  A
C713        C714   1.412       .  A
C713        C716   1.452       .  S
C714        C717   1.453       .  S
C715        N722   1.157       .  T
C716        N721   1.158       .  T
C717        N719   1.157       .  T
C718        N720   1.158       .  T
C723        C724   1.415       .  A
C723        C728   1.415       .  A
C724        C725   1.414       .  A
C724        C729   1.451       .  S
C725        C726   1.413       .  A
C725        C732   1.451       .  S
C726        C727   1.415       .  A
C727        C728   1.410       .  A
C727        C730   1.452       .  S
C728        C731   1.453       .  S
C729        N736   1.157       .  T
C730        N735   1.157       .  T
C731        N733   1.158       .  T
C732        N734   1.157       .  T
C737        C738   1.414       .  A
C737        C742   1.417       .  A
C738        C739   1.410       .  A
C738        C743   1.451       .  S
C739        C740   1.413       .  A
C739        C746   1.451       .  S
C740        C741   1.412       .  A
C741        C742   1.411       .  A
C741        C744   1.452       .  S
C742        C745   1.452       .  S
C743        N750   1.157       .  T
C744        N749   1.158       .  T
C745        N747   1.157       .  T
C746        N748   1.157       .  T
C751        C752   1.415       .  A
C751        C756   1.416   1_655  A
C752        C753   1.411   1_655  A
C752        C757   1.453       .  S
C753        C754   1.416       .  A
C753        C760   1.450       .  S
C754        C755   1.415       .  A
C755        C756   1.418       .  A
C755        C758   1.449       .  S
C756        C759   1.451       .  S
C757        N764   1.157       .  T
C758        N763   1.157       .  T
C759        N761   1.157       .  T
C760        N762   1.157       .  T
C765        C766   1.412       .  A
C765        C770   1.413       .  A
C766        C767   1.409       .  A
C766        C771   1.453       .  S
C767        C768   1.419       .  A
C767        C774   1.450       .  S
C768        C769   1.418       .  A
C769        C770   1.415       .  A
C769        C772   1.449       .  S
C770        C773   1.451       .  S
C771        N778   1.157       .  T
C772        N777   1.157       .  T
C773        N775   1.157       .  T
C774        N776   1.157       .  T
C779        C780   1.412   1_655  A
C779        C784   1.412   1_655  A
C780        C781   1.416       .  A
C780        C785   1.451   1_455  S
C781        C782   1.421       .  A
C781        C788   1.450       .  S
C782        C783   1.423       .  A
C783        C784   1.413       .  A
C783        C786   1.453       .  S
C784        C787   1.453       .  S
C785        N792   1.157       .  T
C786        N791   1.158       .  T
C787        N789   1.158       .  T
C788        N790   1.157       .  T
C793        C794   1.411       .  A
C793        C798   1.413       .  A
C794        C795   1.408       .  A
C794        C799   1.453       .  S
C795        C796   1.420       .  A
C795        C802   1.453       .  S
C796        C797   1.418       .  A
C797        C798   1.417       .  A
C797        C800   1.450       .  S
C798        C801   1.451       .  S
C799        N806   1.157       .  T
C800        N805   1.157       .  T
C801        N803   1.157   1_455  T
C802        N804   1.158       .  T
C807        C808   1.411       .  A
C807        C812   1.413       .  A
C808        C809   1.409       .  A
C808        C813   1.451       .  S
C809        C810   1.413       .  A
C809        C816   1.452       .  S
C810        C811   1.413       .  A
C811        C812   1.417       .  A
C811        C814   1.449       .  S
C812        C815   1.450       .  S
C813        N820   1.157       .  T
C814        N819   1.157       .  T
C815        N817   1.157       .  T
C816        N818   1.157   1_455  T
C821        C822   1.406       .  A
C821        C826   1.407       .  A
C822        C823   1.418       .  A
C822        C827   1.451       .  S
C823        C824   1.428       .  A
C823        C830   1.450       .  S
C824        C825   1.431       .  A
C825        C826   1.410       .  A
C825        C828   1.452       .  S
C826        C829   1.455       .  S
C827        N834   1.157       .  T
C828        N833   1.158       .  T
C829        N831   1.157       .  T
C830        N832   1.158       .  T
C835        C836   1.413       .  A
C835        C840   1.413       .  A
C836        C837   1.415       .  A
C836        C841   1.450       .  S
C837        C838   1.415       .  A
C837        C844   1.450       .  S
C838        C839   1.413       .  A
C839        C840   1.409       .  A
C839        C842   1.452       .  S
C840        C843   1.451   1_545  S
C841        N848   1.157       .  T
C842        N847   1.157       .  T
C843        N845   1.157       .  T
C844        N846   1.157       .  T
C849        C850   1.413       .  A
C849        C854   1.414       .  A
C850        C851   1.414       .  A
C850        C855   1.450       .  S
C851        C852   1.416       .  A
C851        C858   1.450       .  S
C852        C853   1.412       .  A
C853        C854   1.407       .  A
C853        C856   1.452       .  S
C854        C857   1.450       .  S
C855        N862   1.157       .  T
C856        N861   1.157       .  T
C857        N859   1.156       .  T
C858        N860   1.157       .  T
C863        C864   1.418       .  A
C863        C868   1.417       .  A
C864        C865   1.414       .  A
C864        C869   1.452       .  S
C865        C866   1.415       .  A
C865        C872   1.452       .  S
C866        C867   1.415       .  A
C867        C868   1.413       .  A
C867        C870   1.452       .  S
C868        C871   1.452       .  S
C869        N876   1.157   1_545  T
C870        N875   1.158       .  T
C871        N873   1.157       .  T
C872        N874   1.157       .  T
C877        C878   1.418       .  A
C877        C882   1.416       .  A
C878        C879   1.406       .  A
C878        C883   1.454       .  S
C879        C880   1.415       .  A
C879        C886   1.454       .  S
C880        C881   1.414       .  A
C881        C882   1.415       .  A
C881        C884   1.450       .  S
C882        C885   1.450       .  S
C883        N890   1.158       .  T
C884        N889   1.157       .  T
C885        N887   1.157       .  T
C886        N888   1.157       .  T
C891        C892   1.415       .  A
C891        C896   1.416       .  A
C892        C893   1.413       .  A
C892        C897   1.451       .  S
C893        C894   1.412       .  A
C893        C900   1.450       .  S
C894        C895   1.413       .  A
C895        C896   1.412       .  A
C895        C898   1.453       .  S
C896        C899   1.450       .  S
C897        N904   1.157       .  T
C898        N903   1.158       .  T
C899        N901   1.157       .  T
C900        N902   1.157       .  T
C905        C906   1.414       .  A
C905        C910   1.415       .  A
C906        C907   1.417       .  A
C906        C911   1.450       .  S
C907        C908   1.414       .  A
C907        C914   1.450       .  S
C908        C909   1.414       .  A
C909        C910   1.413       .  A
C909        C912   1.453       .  S
C910        C913   1.450       .  S
C911        N918   1.157       .  T
C912        N917   1.158       .  T
C913        N915   1.157       .  T
C914        N916   1.157       .  T
C919        C920   1.411       .  A
C919        C924   1.413       .  A
C920        C921   1.406       .  A
C920        C925   1.451       .  S
C921        C922   1.410   1_455  A
C921        C928   1.452   1_455  S
C922        C923   1.411   1_655  A
C923        C924   1.415       .  A
C923        C926   1.449       .  S
C924        C927   1.449       .  S
C925        N932   1.157       .  T
C926        N931   1.157   1_455  T
C927        N929   1.157       .  T
C928        N930   1.157       .  T
C933        C934   1.416       .  A
C933        C938   1.416       .  A
C934        C935   1.414       .  A
C934        C939   1.451       .  S
C935        C936   1.415       .  A
C935        C942   1.452       .  S
C936        C937   1.414       .  A
C937        C938   1.416       .  A
C937        C940   1.449       .  S
C938        C941   1.451       .  S
C939        N946   1.157       .  T
C940        N945   1.157       .  T
C941        N943   1.157       .  T
C942        N944   1.157       .  T
C947        C948   1.414   1_655  A
C947        C952   1.410       .  A
C948        C949   1.416       .  A
C948        C953   1.451       .  S
C949        C950   1.418       .  A
C949        C956   1.451       .  S
C950        C951   1.419       .  A
C951        C952   1.407   1_455  A
C951        C954   1.453       .  S
C952        C955   1.453       .  S
C953        N960   1.157       .  T
C954        N959   1.157       .  T
C955        N957   1.157       .  T
C956        N958   1.158       .  T
C961        C962   1.415       .  A
C961        C966   1.414       .  A
C962        C963   1.409       .  A
C962        C967   1.451       .  S
C963        C964   1.415       .  A
C963        C970   1.453       .  S
C964        C965   1.417       .  A
C965        C966   1.415       .  A
C965        C968   1.451       .  S
C966        C969   1.450       .  S
C967        N974   1.157       .  T
C968        N973   1.157   1_455  T
C969        N971   1.157       .  T
C970        N972   1.157       .  T
C975        C976   1.414       .  A
C975        C980   1.414       .  A
C976        C977   1.412       .  A
C976        C981   1.452       .  S
C977        C978   1.416       .  A
C977        C984   1.451       .  S
C978        C979   1.418       .  A
C979        C980   1.413       .  A
C979        C982   1.452   1_455  S
C980        C983   1.451       .  S
C981        N988   1.157       .  T
C982        N987   1.158       .  T
C983        N985   1.157       .  T
C984        N986   1.157   1_545  T
C989        C990   1.412       .  A
C989        C994   1.415       .  A
C990        C991   1.412       .  A
C990        C995   1.451       .  S
C991        C992   1.414       .  A
C991        C998   1.450       .  S
C992        C993   1.415       .  A
C993        C994   1.414       .  A
C993        C996   1.451       .  S
C994        C997   1.452       .  S
C995       N1002   1.157       .  T
C996       N1001   1.157       .  T
C997        N999   1.157       .  T
C998       N1000   1.157       .  T
C1003      C1004   1.413       .  A
C1003      C1008   1.413       .  A
C1004      C1005   1.413       .  A
C1004      C1009   1.450       .  S
C1005      C1006   1.413       .  A
C1005      C1012   1.452       .  S
C1006      C1007   1.409       .  A
C1007      C1008   1.410       .  A
C1007      C1010   1.451       .  S
C1008      C1011   1.450       .  S
C1009      N1016   1.157       .  T
C1010      N1015   1.157       .  T
C1011      N1013   1.157   1_545  T
C1012      N1014   1.158       .  T
C1017      C1018   1.416       .  A
C1017      C1022   1.415       .  A
C1018      C1019   1.419       .  A
C1018      C1023   1.450       .  S
C1019      C1020   1.415       .  A
C1019      C1026   1.450       .  S
C1020      C1021   1.415       .  A
C1021      C1022   1.411       .  A
C1021      C1024   1.452       .  S
C1022      C1025   1.452       .  S
C1023      N1030   1.157       .  T
C1024      N1029   1.157       .  T
C1025      N1027   1.157       .  T
C1026      N1028   1.157       .  T
C1031      C1032   1.412       .  A
C1031      C1036   1.412       .  A
C1032      C1033   1.412       .  A
C1032      C1037   1.450       .  S
C1033      C1034   1.413       .  A
C1033      C1040   1.451       .  S
C1034      C1035   1.415       .  A
C1035      C1036   1.409       .  A
C1035      C1038   1.451       .  S
C1036      C1039   1.453       .  S
C1037      N1044   1.157       .  T
C1038      N1043   1.157   1_545  T
C1039      N1041   1.157       .  T
C1040      N1042   1.157       .  T
C1045      C1046   1.409       .  A
C1045      C1050   1.408       .  A
C1046      C1047   1.409       .  A
C1046      C1051   1.455       .  S
C1047      C1048   1.428       .  A
C1047      C1054   1.453       .  S
C1048      C1049   1.426       .  A
C1049      C1050   1.415       .  A
C1049      C1052   1.451       .  S
C1050      C1053   1.451       .  S
C1051      N1058   1.157       .  T
C1052      N1057   1.158       .  T
C1053      N1055   1.157       .  T
C1054      N1056   1.158       .  T
C1059      C1060   1.414       .  A
C1059      C1064   1.413       .  A
C1060      C1061   1.406       .  A
C1060      C1065   1.454       .  S
C1061      C1062   1.417       .  A
C1061      C1068   1.454       .  S
C1062      C1063   1.417       .  A
C1063      C1064   1.416       .  A
C1063      C1066   1.450       .  S
C1064      C1067   1.450       .  S
C1065      N1072   1.157       .  T
C1066      N1071   1.157       .  T
C1067      N1069   1.157       .  T
C1068      N1070   1.158       .  T
