geometry optimzed in LAMMPS
_audit_creation_date              2020-11-30 
_audit_creation_method            'lammps2cif' 
_symmetry_space_group_name_H-M    'P1' 
_symmetry_Int_Tables_number       1 
_symmetry_cell_setting            triclinic 
loop_ 
_symmetry_equiv_pos_as_xyz 
  x,y,z 
_cell_length_a                    22.24403932 
_cell_length_b                    23.09610893455531 
_cell_length_c                    37.6494664969347 
_cell_angle_alpha                 90.72431071448739 
_cell_angle_beta                  88.92191625197675 
_cell_angle_gamma                 119.59576150325225 
loop_ 
_atom_site_label 
_atom_site_type_symbol 
_atom_site_fract_x 
_atom_site_fract_y 
_atom_site_fract_z 
_atom_site_charge 
N1          N  0.75686112  0.19614785  0.98490697    -0.02300
C2          C  0.73371525  0.20363730  0.46529836     0.00300
C3          C  0.70259839  0.23843938  0.47909035    -0.22600
C4          C  0.71023809  0.25595229  0.00719031    -0.22800
C5          C  0.75220998  0.22896634  0.01402452     0.00200
H6          H  0.66969835  0.25273417  0.46530828     0.14000
H7          H  0.69803525  0.28617531  0.02482897     0.14000
N8          N  0.09936175  0.38048520  0.02013116    -0.02300
C9          C  0.10984156  0.41990951  0.48781480     0.00300
C10         C  0.13592191  0.48454494  0.50005654    -0.22600
C11         C  0.14549579  0.48294158  0.04410972    -0.22800
C12         C  0.13401765  0.41872762  0.04838050     0.00200
H13         H  0.13759284  0.52606697  0.48617592     0.14000
H14         H  0.17428111  0.52537324  0.06134729     0.14000
N15         N  0.32278809  0.22086923  0.48004396    -0.02300
C16         C  0.35054007  0.23807141  0.01282169     0.00300
C17         C  0.41868354  0.27849411  0.00214157    -0.22600
C18         C  0.43253978  0.27895732  0.46070680    -0.22800
C19         C  0.36371637  0.25364001  0.45209690     0.00200
H20         H  0.46471597  0.29428246  0.01765870     0.14000
H21         H  0.47735560  0.30876004  0.44404685     0.14000
N22         N  0.17783562  0.89967842  0.52190702    -0.02300
C23         C  0.16749853  0.86036780  0.04897369     0.00300
C24         C  0.22274399  0.84973321  0.04165060    -0.22600
C25         C  0.27505326  0.89321465  0.51513401    -0.22800
C26         C  0.23212001  0.91298302  0.49975823     0.00200
H27         H  0.24000166  0.82194057  0.05734908     0.14000
H28         H  0.32120846  0.89574907  0.50357976     0.14000
N29         N  0.80801150  0.69301654  0.49212321    -0.02300
C30         C  0.80520518  0.65000418  0.46670174     0.00300
C31         C  0.77080920  0.58552589  0.47969946    -0.22600
C32         C  0.73568355  0.59030889  0.00511804    -0.22800
C33         C  0.76162633  0.65700749  0.01307164     0.00200
H34         H  0.76137391  0.54052231  0.46583163     0.14000
H35         H  0.70455658  0.54814970  0.02213561     0.14000
N36         N  0.59892404  0.84079154  0.02108505    -0.02300
C37         C  0.55967739  0.83716421  0.04986136     0.00300
C38         C  0.49368083  0.78310010  0.04652526    -0.22600
C39         C  0.50239010  0.76151989  0.50535179    -0.22800
C40         C  0.57103809  0.79689498  0.49479917     0.00200
H41         H  0.44992630  0.76856136  0.06437112     0.14000
H42         H  0.46000040  0.72223035  0.49086269     0.14000
O43         O  0.00621450  0.95756115  0.47545783    -0.87100
C44         C  0.85399254  0.93170347  0.05210334     0.88900
Mg45       Mg  0.11017892  0.03853390  0.47457744     1.58100
O46         O  0.84441534  0.99730129  0.47594910    -0.86900
O47         O  0.91512276  0.91636682  0.44200285    -0.74200
C48         C  0.07503389  0.31059494  0.01482387     0.93900
O49         O  0.02156561  0.99032574  0.05872472    -0.74000
O50         O  0.11436035  0.28668332  0.02139224    -0.81500
Mg51       Mg  0.95704898  0.90026877  0.02259686     1.58000
C52         C  0.81121350  0.16264043  0.48747002     0.93900
O53         O  0.90327846  0.79908247  0.49825383    -0.79800
H54         H  0.82425465  0.98970433  0.42405445    -0.05100
C55         C  0.93377682  0.13373028  0.05165155     0.88800
O56         O  0.08328884  0.10061550  0.43772160    -0.74300
O57         O  0.87354582  0.92251152  0.02271859    -0.87100
O58         O  0.78314711  0.10085009  0.49482059    -0.79900
C59         C  0.67095840  0.88730946  0.01493164     0.94000
C60         C  0.83969021  0.76398513  0.49015543     0.93800
Mg61       Mg  0.96197949  0.17398553  0.47519751     1.58000
O62         O  0.01467495  0.27456771  0.00253919    -0.79800
O63         O  0.89338798  0.08303726  0.44045799    -0.74000
O64         O  0.70995130  0.86469429  0.00404765    -0.79900
O65         O  0.04633876  0.87769688  0.02314865    -0.81600
O66         O  0.21478818  0.21222949  0.49029180    -0.79900
C67         C  0.85209208  0.02166550  0.44607542     0.88300
O68         O  0.04657439  0.15385340  0.47214582    -0.87000
O69         O  0.90917234  0.11627008  0.02174508    -0.87100
O70         O  0.99716911  0.15419912  0.05734877    -0.74200
Mg71       Mg  0.82395255  0.89597376  0.47916983     1.58000
O72         O  0.69365880  0.94939893  0.01940664    -0.81600
H73         H  0.01066414  0.93914832  0.42376574    -0.05300
O74         O  0.07085895  0.07706280  0.02396177    -0.86800
H75         H  0.08842780  0.08365058  0.07613947    -0.05100
H76         H  0.05703065  0.16739615  0.41958284    -0.05300
C77         C  0.06216537  0.05200657  0.05370384     0.88200
C78         C  0.97898140  0.93718353  0.44632003     0.88800
C79         C  0.06272540  0.14256740  0.44237030     0.88900
H80         H  0.89998629  0.12932168  0.07372202    -0.05300
O81         O  0.83078756  0.97176011  0.05632190    -0.74300
Mg82       Mg  0.09209170  0.17888465  0.02221900     1.58000
H83         H  0.85844194  0.90630192  0.07498100    -0.05300
C84         C  0.11069961  0.91671379  0.01788086     0.93900
O85         O  0.22016425  0.12120982  0.47521068    -0.81500
C86         C  0.24889627  0.18336452  0.48094969     0.93900
O87         O  0.80168673  0.78951050  0.48405852    -0.81500
Mg88       Mg  0.80460761  0.03569565  0.02020787     1.58200
O89         O  0.13411961  0.97606264  0.00683700    -0.79900
O90         O  0.87541853  0.19795552  0.48070132    -0.81500
C91         C  0.95878934  0.49714275  0.24303501    -0.01300
C92         C  0.43959822  0.07875068  0.24912552    -0.01300
C93         C  0.49619243  0.56997290  0.24658590    -0.01300
C94         C  0.54239903  0.92232793  0.13407671     0.19900
C95         C  0.50922099  0.89992236  0.16716156    -0.18200
C96         C  0.49519106  0.94122536  0.18899383    -0.10500
C97         C  0.51372911  0.00592801  0.17794010     0.22200
C98         C  0.54987216  0.02953317  0.14568439    -0.19800
C99         C  0.56373583  0.98815616  0.12376111    -0.10600
C100        C  0.49853553  0.05094805  0.19987070    -0.14800
C101        C  0.44760288  0.02963169  0.22467076    -0.28700
C102        C  0.54433108  0.87280816  0.10935595    -0.02900
C103        C  0.57968839  0.88790302  0.07833791    -0.39500
H104        H  0.49231559  0.84947492  0.17576560     0.13300
H105        H  0.46989491  0.92221706  0.21436126     0.12900
H106        H  0.56559109  0.07960985  0.13687907     0.12400
H107        H  0.58822694  0.00721512  0.09827334     0.12600
H108        H  0.53112688  0.10422802  0.19583751     0.15400
H109        H  0.41221658  0.97674292  0.22795882     0.14100
H110        H  0.50963872  0.82069513  0.11563982     0.11800
H111        H  0.61866750  0.93870524  0.07244134     0.13800
C112        C  0.56274974  0.68511713  0.33060915     0.19900
C113        C  0.60900762  0.69225619  0.35755547    -0.18200
C114        C  0.61001820  0.72367990  0.38985049    -0.10500
C115        C  0.56463381  0.74890226  0.39575832     0.22200
C116        C  0.52096502  0.74468000  0.36822532    -0.19800
C117        C  0.52008953  0.71363018  0.33603378    -0.10600
C118        C  0.55415261  0.77219705  0.43111624    -0.14800
C119        C  0.59603258  0.78780673  0.45932545    -0.28700
C120        C  0.55742590  0.64365428  0.29876501    -0.02900
C121        C  0.50782703  0.62379974  0.27391836    -0.39500
H122        H  0.64270017  0.67102935  0.35419437     0.13300
H123        H  0.64379822  0.72511880  0.41050681     0.12900
H124        H  0.48540602  0.76370057  0.37203626     0.12400
H125        H  0.48453589  0.71105879  0.31620985     0.12600
H126        H  0.50646113  0.77405462  0.43454426     0.15400
H127        H  0.64654704  0.79180970  0.45670666     0.14100
H128        H  0.59234555  0.62338735  0.29723182     0.11800
H129        H  0.47172838  0.64237798  0.27454817     0.13800
C130        C  0.63137572  0.65798542  0.17113945     0.19900
C131        C  0.62426421  0.68516005  0.13940829    -0.18200
C132        C  0.66229304  0.68704691  0.10901025    -0.10500
C133        C  0.70849149  0.66203559  0.11005637     0.23700
C134        C  0.71936214  0.63964693  0.14245141    -0.19800
C135        C  0.68180146  0.63825838  0.17285278    -0.10600
C136        C  0.73734794  0.64880875  0.07721510    -0.14800
C137        C  0.74813968  0.68251072  0.04679490    -0.28700
C138        C  0.58121871  0.64519888  0.20061804    -0.02900
C139        C  0.55985296  0.59300140  0.22275412    -0.39500
H140        H  0.58599619  0.70105972  0.13748765     0.13300
H141        H  0.65183330  0.70368272  0.08436143     0.12900
H142        H  0.75509420  0.62057764  0.14390734     0.12400
H143        H  0.69069961  0.61958235  0.19721860     0.12600
H144        H  0.74694014  0.60699749  0.07770492     0.15400
H145        H  0.74480209  0.72781713  0.04628984     0.14100
H146        H  0.55373693  0.67324806  0.20109186     0.11800
H147        H  0.58442235  0.56243991  0.22129577     0.13800
C148        C  0.84477014  0.62219130  0.37131228     0.19900
C149        C  0.80550106  0.57793402  0.34427839    -0.18200
C150        C  0.83747210  0.56208670  0.31656074    -0.10500
C151        C  0.90978615  0.59001845  0.31552653     0.22200
C152        C  0.94926904  0.63760970  0.34129977    -0.19800
C153        C  0.91727756  0.65353048  0.36900962    -0.10600
C154        C  0.94640580  0.56985841  0.28909136    -0.14800
C155        C  0.91569280  0.51605988  0.26755798    -0.28700
C156        C  0.80806126  0.62464712  0.40400529    -0.02900
C157        C  0.83742418  0.66780305  0.43099625    -0.39500
H158        H  0.74952497  0.55317414  0.34543823     0.13300
H159        H  0.80494676  0.52694463  0.29671420     0.12900
H160        H  0.00513462  0.66045570  0.34092861     0.12400
H161        H  0.94946582  0.68714939  0.38950414     0.12600
H162        H  0.00258967  0.59916271  0.28833206     0.15400
H163        H  0.85996842  0.48459981  0.26798690     0.14100
H164        H  0.75558208  0.58375569  0.40774378     0.11800
H165        H  0.88724464  0.71248025  0.42799144     0.13800
C166        C  0.01414170  0.64335424  0.17623453     0.19900
C167        C  0.07906117  0.69466252  0.18704186    -0.18200
C168        C  0.11711716  0.75028828  0.16548867    -0.10500
C169        C  0.09090438  0.75627262  0.13293838     0.22200
C170        C  0.02450307  0.70639505  0.12293313    -0.19800
C171        C  0.98634549  0.65077025  0.14457619    -0.10600
C172        C  0.13836345  0.80904237  0.10801325    -0.14800
C173        C  0.11827793  0.82825506  0.07899272    -0.28700
C174        C  0.97360356  0.58227672  0.19768212    -0.02900
C175        C  0.00273728  0.55676123  0.21906255    -0.39500
H176        H  0.10085988  0.69186515  0.21201654     0.13300
H177        H  0.16810338  0.78792069  0.17378995     0.12900
H178        H  0.00313328  0.70831085  0.09766172     0.12400
H179        H  0.93607150  0.61223125  0.13593503     0.12600
H180        H  0.19331985  0.82873311  0.11213897     0.15400
H181        H  0.06438912  0.81376221  0.07544286     0.14100
H182        H  0.91767333  0.55668815  0.19558906     0.11800
H183        H  0.05861637  0.58011025  0.22002393     0.13800
C184        C  0.34133776  0.97206774  0.33162299     0.19900
C185        C  0.31308759  0.00606570  0.35076273    -0.18200
C186        C  0.28451222  0.98471482  0.38493778    -0.10500
C187        C  0.28370896  0.92894954  0.40024676     0.22200
C188        C  0.30905570  0.89379805  0.38016564    -0.19800
C189        C  0.33774935  0.91521875  0.34648875    -0.10600
C190        C  0.26286852  0.90746478  0.43766280    -0.14800
C191        C  0.24036956  0.93562339  0.46222840    -0.28700
C192        C  0.38407630  0.99879353  0.29893936    -0.02900
C193        C  0.38185134  0.04272293  0.27656857    -0.39500
H194        H  0.31638543  0.05101351  0.34035029     0.13300
H195        H  0.26572965  0.01330942  0.39954008     0.12900
H196        H  0.30931443  0.85075862  0.39115487     0.12400
H197        H  0.35965766  0.88852458  0.33249481     0.12600
H198        H  0.26919072  0.86593485  0.44611945     0.15400
H199        H  0.22909196  0.97457436  0.45522130     0.14100
H200        H  0.42298833  0.98405195  0.29405246     0.11800
H201        H  0.34167642  0.05623557  0.27972504     0.13800
C202        C  0.36188077  0.13812363  0.17526445     0.19900
C203        C  0.31085576  0.10321300  0.14975515    -0.18200
C204        C  0.30931780  0.13418391  0.11831030    -0.10500
C205        C  0.35882482  0.20113100  0.11187029     0.22200
C206        C  0.40616167  0.23728898  0.13860806    -0.19800
C207        C  0.40758792  0.20649079  0.16996672    -0.10600
C208        C  0.36901831  0.23372205  0.07675900    -0.14800
C209        C  0.32799991  0.20703589  0.04841914    -0.28700
C210        C  0.36954571  0.09976914  0.20472129    -0.02900
C211        C  0.42478810  0.12397740  0.22620847    -0.39500
H212        H  0.27430560  0.05080441  0.15326960     0.13300
H213        H  0.27153383  0.10430090  0.09862766     0.12900
H214        H  0.44434825  0.28910577  0.13461006     0.12400
H215        H  0.44638754  0.23659740  0.18913897     0.12600
H216        H  0.41560299  0.28156800  0.07359343     0.15400
H217        H  0.27870538  0.16174374  0.05075051     0.14100
H218        H  0.33206530  0.04693876  0.20632555     0.11800
H219        H  0.46370349  0.17619280  0.22530387     0.13800
C220        C  0.37540272  0.31296839  0.35745655     0.19900
C221        C  0.42814064  0.33083725  0.33181976    -0.18200
C222        C  0.44241547  0.38097362  0.30735233    -0.10500
C223        C  0.40379319  0.41423383  0.30806257     0.22200
C224        C  0.34656229  0.39153562  0.33126844    -0.19800
C225        C  0.33220218  0.34128588  0.35571394    -0.10600
C226        C  0.42256760  0.47443373  0.28666490    -0.14800
C227        C  0.48050031  0.50693133  0.26656056    -0.28700
C228        C  0.37563482  0.27392466  0.38830813    -0.02900
C229        C  0.33949160  0.26631540  0.41852338    -0.39500
H230        H  0.46144836  0.30895074  0.33212503     0.13300
H231        H  0.48524731  0.39455261  0.28907535     0.12900
H232        H  0.31469420  0.41498207  0.33169676     0.12400
H233        H  0.28954040  0.32775385  0.37410519     0.12600
H234        H  0.38786079  0.49495638  0.28839182     0.15400
H235        H  0.51690238  0.48873409  0.26426677     0.14100
H236        H  0.41557730  0.25973250  0.38835353     0.11800
H237        H  0.29667462  0.27611844  0.42004424     0.13800
C238        C  0.23273994  0.44130941  0.13362864     0.19900
C239        C  0.24090953  0.47948596  0.16431219    -0.18200
C240        C  0.29786927  0.49935692  0.18608281    -0.10500
C241        C  0.34858448  0.48180747  0.17748890     0.22200
C242        C  0.33877441  0.44079266  0.14778933    -0.19800
C243        C  0.28164036  0.42089142  0.12590754    -0.10600
C244        C  0.41136946  0.50376928  0.19913482    -0.14800
C245        C  0.43444516  0.55379944  0.22320824    -0.28700
C246        C  0.17848513  0.43291411  0.10844448    -0.02900
C247        C  0.16512743  0.39989160  0.07730670    -0.39500
H248        H  0.20407021  0.49587259  0.17094475     0.13300
H249        H  0.30152839  0.52852018  0.20943902     0.12900
H250        H  0.37645638  0.42560219  0.14092028     0.12400
H251        H  0.27788948  0.39192373  0.10245323     0.12600
H252        H  0.44021259  0.47746623  0.19528008     0.15400
H253        H  0.40835099  0.58257437  0.22675548     0.14100
H254        H  0.15368533  0.46258887  0.11392230     0.11800
H255        H  0.18451411  0.36609420  0.07133553     0.13800
C256        C  0.07626623  0.42993620  0.38830419     0.19900
C257        C  0.11477733  0.47571051  0.36148494    -0.18200
C258        C  0.08477097  0.47545553  0.32914962    -0.10500
C259        C  0.01482752  0.42912960  0.32284792     0.22200
C260        C  0.97754005  0.38078790  0.34892278    -0.19800
C261        C  0.00769203  0.38107151  0.38132785    -0.10600
C262        C  0.97629194  0.43421775  0.29204395    -0.14800
C263        C  0.00416075  0.48117439  0.26643023    -0.28700
C264        C  0.10681804  0.44108616  0.42424728    -0.02900
C265        C  0.08187037  0.39776834  0.45154142    -0.39500
H266        H  0.16774378  0.51399614  0.36614780     0.13300
H267        H  0.11609843  0.51369738  0.31026145     0.12900
H268        H  0.92356639  0.34454897  0.34497361     0.12400
H269        H  0.97588745  0.34549060  0.40137381     0.12600
H270        H  0.92041587  0.40262848  0.29267121     0.15400
H271        H  0.05960803  0.51271043  0.26428321     0.14100
H272        H  0.15174600  0.48968851  0.42886539     0.11800
H273        H  0.04090842  0.34698864  0.44749111     0.13800
C274        C  0.89665743  0.36466661  0.16685846     0.19900
C275        C  0.92847680  0.36498800  0.13421289    -0.18200
C276        C  0.88919316  0.32662546  0.10555218    -0.10500
C277        C  0.81700973  0.28658311  0.10910511     0.22200
C278        C  0.78582491  0.28295926  0.14238832    -0.19800
C279        C  0.82514286  0.32108620  0.17108369    -0.10600
C280        C  0.77205478  0.25644363  0.07781309    -0.14800
C281        C  0.79311740  0.24201955  0.04684130    -0.28700
C282        C  0.93907300  0.41341695  0.19477089    -0.02900
C283        C  0.91265890  0.43720726  0.21984766    -0.39500
H284        H  0.98354254  0.39775962  0.13025677     0.13300
H285        H  0.91502439  0.33173117  0.08020532     0.12900
H286        H  0.73035434  0.25221112  0.14587308     0.12400
H287        H  0.79896311  0.31732932  0.19614180     0.12600
H288        H  0.72002403  0.24936196  0.07981149     0.15400
H289        H  0.84250087  0.24329674  0.04492529     0.14100
H290        H  0.99500707  0.43647211  0.19223681     0.11800
H291        H  0.85713109  0.41690617  0.22188959     0.13800
C292        C  0.60372587  0.13498292  0.30670527     0.19900
C293        C  0.62678086  0.09731427  0.32519004    -0.18200
C294        C  0.66771158  0.12340815  0.35531003    -0.10500
C295        C  0.68667429  0.18810785  0.36721027     0.22200
C296        C  0.66856467  0.22750470  0.34679885    -0.19800
C297        C  0.62772579  0.20145256  0.31684054    -0.10600
C298        C  0.71761818  0.21455781  0.40239021    -0.14800
C299        C  0.72598840  0.17944540  0.42821578    -0.28700
C300        C  0.55130555  0.10197374  0.27874010    -0.02900
C301        C  0.50513580  0.12148776  0.27031711    -0.39500
H302        H  0.61009718  0.04631661  0.31741733     0.13300
H303        H  0.68169702  0.09175339  0.36973632     0.12900
H304        H  0.68326507  0.27788181  0.35502404     0.12400
H305        H  0.61371333  0.23308961  0.30234832     0.12600
H306        H  0.72664008  0.26419378  0.40901724     0.15400
H307        H  0.72148982  0.13115896  0.42323958     0.14100
H308        H  0.54514834  0.05540330  0.26820489     0.11800
H309        H  0.50728562  0.16418770  0.28394293     0.13800
N310        N  0.77050432  0.19490323  0.49075192    -0.02300
C311        C  0.71914823  0.20342009  0.95935432     0.00300
C312        C  0.68926513  0.23976597  0.97264743    -0.22600
C313        C  0.72196848  0.25236289  0.51394288    -0.22800
C314        C  0.76425039  0.22550419  0.52048298     0.00200
H315        H  0.65535561  0.25286802  0.95893908     0.14000
H316        H  0.70895609  0.28161131  0.53187070     0.14000
N317        N  0.11754203  0.38218920  0.51279977    -0.02300
C318        C  0.09069083  0.42129728  0.99763347     0.00300
C319        C  0.11798671  0.48449123  0.01215427    -0.22600
C320        C  0.16121692  0.48682806  0.53326151    -0.22800
C321        C  0.14974383  0.42341200  0.54046349     0.00200
H322        H  0.12009522  0.52789007  0.00028019     0.14000
H323        H  0.18787825  0.53104007  0.54957655     0.14000
N324        N  0.30794792  0.22883989  0.98550187    -0.02300
C325        C  0.36493520  0.22373599  0.50630058     0.00300
C326        C  0.43334823  0.25997471  0.49513095    -0.22600
C327        C  0.41735699  0.29448696  0.96725099    -0.22800
C328        C  0.34850068  0.26312731  0.95765973     0.00200
H329        H  0.47889783  0.27030172  0.50986254     0.14000
H330        H  0.46185281  0.32703041  0.95105228     0.14000
N331        N  0.15894986  0.89283599  0.02141281    -0.02300
C332        C  0.18585668  0.86995005  0.55089454     0.00300
C333        C  0.24581862  0.86585726  0.54730073    -0.22600
C334        C  0.24735401  0.87476856  0.00839720    -0.22800
C335        C  0.20699395  0.90038597  0.99647277     0.00200
H336        H  0.26455933  0.84199753  0.56505346     0.14000
H337        H  0.28735157  0.87081418  0.99357835     0.14000
N338        N  0.79680857  0.69493416  0.98477950    -0.02300
C339        C  0.79327880  0.65257891  0.95874750     0.00300
C340        C  0.75570465  0.58745983  0.97070578    -0.22600
C341        C  0.75170048  0.58933064  0.51417757    -0.22800
C342        C  0.77513743  0.65605991  0.52112479     0.00200
H343        H  0.74518845  0.54259774  0.95635914     0.14000
H344        H  0.72254921  0.54771519  0.53180531     0.14000
N345        N  0.60881005  0.84332601  0.51979000    -0.02300
C346        C  0.56297678  0.83793696  0.54574492     0.00300
C347        C  0.49719326  0.78744810  0.53733266    -0.22600
C348        C  0.49222975  0.75329002  0.01457811    -0.22800
C349        C  0.55724881  0.79005150  0.99918861     0.00200
H350        H  0.44948039  0.77283418  0.55192229     0.14000
H351        H  0.44770223  0.71043948  0.00350896     0.14000
O352        O  0.99614046  0.95917262  0.97469762    -0.87100
C353        C  0.86897599  0.93235350  0.55560879     0.88900
Mg354      Mg  0.09958517  0.04056993  0.97726753     1.58100
O355        O  0.83231336  0.99929146  0.97284141    -0.86900
O356        O  0.90771062  0.92275654  0.93935665    -0.74200
C357        C  0.09257342  0.31182040  0.51060232     0.93900
O358        O  0.03976195  0.99437101  0.55831157    -0.74000
O359        O  0.13344606  0.28904874  0.51583599    -0.81500
Mg360      Mg  0.97210344  0.90164004  0.52457308     1.58000
C361        C  0.79711442  0.16326277  0.98268629     0.93900
O362        O  0.89183114  0.80031932  0.99331569    -0.79800
H363        H  0.81462911  0.99287772  0.92072232    -0.05100
C364        C  0.95356965  0.13634898  0.55242643     0.88800
O365        O  0.07503223  0.10432491  0.94029376    -0.74300
O366        O  0.88740903  0.92260913  0.52605199    -0.87100
O367        O  0.76891879  0.10207675  0.99163034    -0.79900
C368        C  0.68234458  0.88809295  0.51783139     0.94000
C369        C  0.82903425  0.76600377  0.98385616     0.93800
Mg370      Mg  0.94896183  0.17527028  0.97403938     1.58000
O371        O  0.02997266  0.27426418  0.50186647    -0.79800
O372        O  0.88327695  0.08568230  0.93794422    -0.74000
O373        O  0.72086252  0.86409532  0.50829246    -0.79900
O374        O  0.06317227  0.88035964  0.52360680    -0.81600
O375        O  0.19728659  0.21377726  0.99427316    -0.79900
C376        C  0.84138773  0.02430658  0.94306261     0.88300
O377        O  0.03297636  0.15447822  0.97363738    -0.87000
O378        O  0.92583648  0.11599590  0.52339634    -0.87100
O379        O  0.01797507  0.15916879  0.55620936    -0.74200
Mg380      Mg  0.81327945  0.89850706  0.97497214     1.58000
O381        O  0.70675571  0.95030045  0.52310774    -0.81600
H382        H  0.00447040  0.94682659  0.92255367    -0.05300
O383        O  0.08771620  0.07894325  0.52199858    -0.86800
H384        H  0.10880244  0.08835426  0.57380978    -0.05100
H385        H  0.04843359  0.17037663  0.92133138    -0.05300
C386        C  0.08075170  0.05554403  0.55207274     0.88200
C387        C  0.97108393  0.94243534  0.94481024     0.88800
C388        C  0.05249986  0.14490971  0.94434002     0.88900
H389        H  0.92200743  0.13343824  0.57533526    -0.05300
O390        O  0.84592727  0.97249794  0.55994131    -0.74300
Mg391      Mg  0.11032267  0.18095343  0.51915575     1.58000
H392        H  0.87414208  0.90735332  0.57843318    -0.05300
C393        C  0.12689467  0.91977234  0.51650072     0.93900
O394        O  0.20905776  0.12544768  0.98104573    -0.81500
C395        C  0.23445375  0.18761678  0.98611401     0.93900
O396        O  0.79157960  0.79212104  0.97788812    -0.81500
Mg397      Mg  0.81950371  0.03573738  0.52350217     1.58200
O398        O  0.14756891  0.97716234  0.50356385    -0.79900
O399        O  0.86155505  0.19832243  0.97629781    -0.81500
C400        C  0.97235935  0.50652289  0.74409078    -0.01300
C401        C  0.39728227  0.03897011  0.74879438    -0.01300
C402        C  0.49164896  0.57338895  0.74827859    -0.01300
C403        C  0.52251199  0.90345450  0.63145757     0.19900
C404        C  0.47966870  0.87255060  0.66116698    -0.18200
C405        C  0.46012070  0.90826551  0.68434103    -0.10500
C406        C  0.48276467  0.97582833  0.67808169     0.22200
C407        C  0.52674943  0.00711075  0.64883729    -0.19800
C408        C  0.54618239  0.97136628  0.62560923    -0.10600
C409        C  0.46418072  0.01640191  0.70184127    -0.14800
C410        C  0.41026854  0.99179097  0.72507462    -0.28700
C411        C  0.53293753  0.86084389  0.60506861    -0.02900
C412        C  0.57641371  0.88285141  0.57669741    -0.39500
H413        H  0.46015813  0.82012608  0.66612267     0.13300
H414        H  0.42773279  0.88274808  0.70708905     0.12900
H415        H  0.54509866  0.05922338  0.64353030     0.12400
H416        H  0.57767309  0.99671924  0.60258007     0.12600
H417        H  0.49641081  0.07017202  0.69995652     0.15400
H418        H  0.37510775  0.93859713  0.72676733     0.14100
H419        H  0.49772570  0.80764224  0.60747958     0.11800
H420        H  0.61624352  0.93456835  0.57442683     0.13800
C421        C  0.54571226  0.68315045  0.83305624     0.19900
C422        C  0.60427857  0.71507947  0.85451359    -0.18200
C423        C  0.60045840  0.74032203  0.88798484    -0.10500
C424        C  0.53728338  0.73336515  0.90075371     0.22200
C425        C  0.47946434  0.70343404  0.87867272    -0.19800
C426        C  0.48333425  0.67838052  0.84533776    -0.10600
C427        C  0.52690959  0.75188285  0.93741933    -0.14800
C428        C  0.57569280  0.77905319  0.96253974    -0.28700
C429        C  0.54834439  0.64703764  0.80070877    -0.02900
C430        C  0.50206910  0.62838911  0.77438843    -0.39500
H431        H  0.65275625  0.71867519  0.84578860     0.13300
H432        H  0.64641856  0.76299243  0.90386455     0.12900
H433        H  0.42998277  0.69696151  0.88781011     0.12400
H434        H  0.43637582  0.65215266  0.83030126     0.12600
H435        H  0.47471938  0.74101961  0.94434405     0.15400
H436        H  0.62906047  0.79415438  0.95634356     0.14100
H437        H  0.58547277  0.62932454  0.80015995     0.11800
H438        H  0.46712641  0.64849316  0.77363544     0.13800
C439        C  0.63682821  0.65762786  0.67677570     0.19900
C440        C  0.63745199  0.69065868  0.64562125    -0.18200
C441        C  0.67766288  0.69257584  0.61620429    -0.10500
C442        C  0.71869045  0.66186667  0.61761905     0.23700
C443        C  0.72219723  0.63354066  0.64972178    -0.19800
C444        C  0.68212224  0.63177134  0.67913464    -0.10600
C445        C  0.74972506  0.64942017  0.58525405    -0.14800
C446        C  0.76062670  0.68208716  0.55440748    -0.28700
C447        C  0.58407858  0.64621446  0.70466487    -0.02900
C448        C  0.55749538  0.59343325  0.72668902    -0.39500
H449        H  0.60341951  0.71148734  0.64322807     0.13300
H450        H  0.67272632  0.71420107  0.59190530     0.12900
H451        H  0.75388574  0.61005726  0.65159520     0.12400
H452        H  0.68527475  0.60831852  0.70315587     0.12600
H453        H  0.76032769  0.60823442  0.58633993     0.15400
H454        H  0.75616468  0.72674658  0.55300126     0.14100
H455        H  0.55934506  0.67670794  0.70397041     0.11800
H456        H  0.57939556  0.56062011  0.72683184     0.13800
C457        C  0.84607179  0.62999557  0.86501673     0.19900
C458        C  0.81107816  0.59098317  0.83548870    -0.18200
C459        C  0.84700959  0.57845399  0.80849147    -0.10500
C460        C  0.91870273  0.60377664  0.81093209     0.22200
C461        C  0.95435043  0.64659297  0.83919930    -0.19800
C462        C  0.91843324  0.65942212  0.86613074    -0.10600
C463        C  0.95776884  0.58412022  0.78595528    -0.14800
C464        C  0.92834757  0.52827461  0.76590360    -0.28700
C465        C  0.80462373  0.62892749  0.89642939    -0.02900
C466        C  0.82944706  0.67156276  0.92398000    -0.39500
H467        H  0.75537033  0.56786942  0.83403118     0.13300
H468        H  0.81791635  0.54755214  0.78637927     0.12900
H469        H  0.00965853  0.66725157  0.84147905     0.12400
H470        H  0.94712406  0.68874668  0.88878297     0.12600
H471        H  0.01383903  0.61385665  0.78601099     0.15400
H472        H  0.87269790  0.49646329  0.76623885     0.14100
H473        H  0.75250394  0.58677384  0.89843087     0.11800
H474        H  0.87876225  0.71718969  0.92212429     0.13800
C475        C  0.03246945  0.65051182  0.67580735     0.19900
C476        C  0.09838704  0.70057298  0.68622793    -0.18200
C477        C  0.13514014  0.75781276  0.66566639    -0.10500
C478        C  0.10698048  0.76650270  0.63444246     0.22200
C479        C  0.03972953  0.71766329  0.62491938    -0.19800
C480        C  0.00287247  0.66058675  0.64561239    -0.10600
C481        C  0.15326326  0.82166079  0.61039300    -0.14800
C482        C  0.13398537  0.83624733  0.57958346    -0.28700
C483        C  0.99150007  0.58885558  0.69665862    -0.02900
C484        C  0.01886174  0.56372424  0.71938657    -0.39500
H485        H  0.12175159  0.69597657  0.71015644     0.13300
H486        H  0.18677993  0.79464687  0.67368270     0.12900
H487        H  0.01610307  0.72154809  0.60095784     0.12400
H488        H  0.95156967  0.62319607  0.63743371     0.12600
H489        H  0.20804101  0.84660110  0.61644810     0.15400
H490        H  0.07996050  0.81653434  0.57353625     0.14100
H491        H  0.93561594  0.56347270  0.69390312     0.11800
H492        H  0.07456131  0.58645625  0.72155804     0.13800
C493        C  0.28205467  0.93093698  0.82690610     0.19900
C494        C  0.26329972  0.97243966  0.84611576    -0.18200
C495        C  0.23284158  0.95396271  0.88003585    -0.10500
C496        C  0.22055268  0.89349107  0.89509644     0.22200
C497        C  0.23360829  0.84982736  0.87438298    -0.19800
C498        C  0.26483544  0.86865943  0.84089531    -0.10600
C499        C  0.20178041  0.87627153  0.93310374    -0.14800
C500        C  0.20756229  0.91939019  0.95901413    -0.28700
C501        C  0.33014400  0.95554421  0.79595062    -0.02900
C502        C  0.33433077  0.00178140  0.77309530    -0.39500
H503        H  0.27667925  0.02126191  0.83618342     0.13300
H504        H  0.22202509  0.98828123  0.89475662     0.12900
H505        H  0.22399705  0.80256804  0.88511636     0.12400
H506        H  0.27885403  0.83595299  0.82665599     0.12600
H507        H  0.19033881  0.82663937  0.94109842     0.15400
H508        H  0.21793414  0.96939530  0.95328062     0.14100
H509        H  0.36766374  0.93849240  0.79352143     0.11800
H510        H  0.29521008  0.01695664  0.77413637     0.13800
C511        C  0.34146589  0.10196586  0.66776697     0.19900
C512        C  0.30909365  0.06760952  0.63654320    -0.18200
C513        C  0.31940633  0.10182360  0.60463993    -0.10500
C514        C  0.36212270  0.17134390  0.60342942     0.22200
C515        C  0.39176986  0.20603980  0.63491772    -0.19800
C516        C  0.38085091  0.17194660  0.66689341    -0.10600
C517        C  0.38180084  0.20823435  0.56941596    -0.14800
C518        C  0.34084212  0.18909697  0.54086813    -0.28700
C519        C  0.33837233  0.06240296  0.69930421    -0.02900
C520        C  0.38721588  0.08570361  0.72454306    -0.39500
H521        H  0.27854809  0.01377185  0.63640031     0.13300
H522        H  0.29680157  0.07333381  0.58071161     0.12900
H523        H  0.42452698  0.25964996  0.63463556     0.12400
H524        H  0.40474040  0.20073414  0.69050192     0.12600
H525        H  0.43187341  0.25327073  0.56804700     0.15400
H526        H  0.28847660  0.14753536  0.54285313     0.14100
H527        H  0.30140400  0.00939179  0.69891234     0.11800
H528        H  0.42615498  0.13795451  0.72501083     0.13800
C529        C  0.36172302  0.32584316  0.86375180     0.19900
C530        C  0.40210144  0.33123787  0.83357917    -0.18200
C531        C  0.41603204  0.37950581  0.80793768    -0.10500
C532        C  0.39023829  0.42380131  0.81233091     0.22200
C533        C  0.34507815  0.41471763  0.84088640    -0.19800
C534        C  0.33108394  0.36642293  0.86653384    -0.10600
C535        C  0.41134814  0.48172731  0.78885115    -0.14800
C536        C  0.47082964  0.51053219  0.76968924    -0.28700
C537        C  0.36450689  0.28783722  0.89436996    -0.02900
C538        C  0.32390180  0.27337735  0.92347974    -0.39500
H539        H  0.42600771  0.30030502  0.83076991     0.13300
H540        H  0.44852311  0.38304580  0.78540528     0.12900
H541        H  0.32378619  0.44771839  0.84452002     0.12400
H542        H  0.30047330  0.36460933  0.88957624     0.12600
H543        H  0.37900791  0.50488896  0.78908814     0.15400
H544        H  0.50541316  0.49002151  0.77002229     0.14100
H545        H  0.40820525  0.27896574  0.89487967     0.11800
H546        H  0.27656101  0.27607790  0.92340486     0.13800
C547        C  0.24134050  0.45040849  0.62868982     0.19900
C548        C  0.24624391  0.48731272  0.65944653    -0.18200
C549        C  0.30011428  0.50503719  0.68308634    -0.10500
C550        C  0.35090035  0.48683685  0.67619051     0.22200
C551        C  0.34406440  0.44693776  0.64643612    -0.19800
C552        C  0.29005081  0.42912583  0.62273514    -0.10600
C553        C  0.41087025  0.50729467  0.69962545    -0.14800
C554        C  0.43346593  0.55866928  0.72275431    -0.28700
C555        C  0.19157846  0.44452967  0.60139211    -0.02900
C556        C  0.17729388  0.40693679  0.57185035    -0.39500
H557        H  0.20942151  0.50425458  0.66466540     0.13300
H558        H  0.30158255  0.53324459  0.70654023     0.12900
H559        H  0.38190813  0.43141420  0.64087785     0.12400
H560        H  0.28897243  0.40154690  0.59909035     0.12600
H561        H  0.43792795  0.47898199  0.69791647     0.15400
H562        H  0.40923728  0.58942564  0.72398015     0.14100
H563        H  0.17086569  0.47822537  0.60411308     0.11800
H564        H  0.19206382  0.36892428  0.56923456     0.13800
C565        C  0.06701333  0.44448571  0.89817767     0.19900
C566        C  0.10268365  0.49922954  0.87540380    -0.18200
C567        C  0.07800597  0.49932952  0.84159126    -0.10500
C568        C  0.01689312  0.44407687  0.82951938     0.22200
C569        C  0.98224267  0.38848848  0.85184141    -0.19800
C570        C  0.00694740  0.38838757  0.88577450    -0.10600
C571        C  0.98271876  0.44638711  0.79640392    -0.14800
C572        C  0.01436822  0.49151761  0.77028070    -0.28700
C573        C  0.09228720  0.45112973  0.93512884    -0.02900
C574        C  0.06429045  0.40456234  0.96080911    -0.39500
H575        H  0.14878093  0.54342482  0.88428900     0.13300
H576        H  0.10518784  0.54411876  0.82593954     0.12900
H577        H  0.93446766  0.34562850  0.84340109     0.12400
H578        H  0.97749049  0.34522537  0.90230699     0.12600
H579        H  0.92700964  0.41397014  0.79517305     0.15400
H580        H  0.07022333  0.52245000  0.76995084     0.14100
H581        H  0.13663489  0.49891314  0.94188469     0.11800
H582        H  0.02276975  0.35486232  0.95510402     0.13800
C583        C  0.90946818  0.36568141  0.67235952     0.19900
C584        C  0.94131136  0.36058172  0.64081373    -0.18200
C585        C  0.90164632  0.32087378  0.61255364    -0.10500
C586        C  0.82903514  0.28489676  0.61548361     0.22200
C587        C  0.79765707  0.28630198  0.64793680    -0.19800
C588        C  0.83727658  0.32559880  0.67621157    -0.10600
C589        C  0.78424754  0.25413643  0.58416532    -0.14800
C590        C  0.80454968  0.23772312  0.55351333    -0.28700
C591        C  0.95241341  0.41674572  0.69926840    -0.02900
C592        C  0.92652738  0.44502911  0.72186547    -0.39500
H593        H  0.99689484  0.39039482  0.63722250     0.13300
H594        H  0.92781505  0.32195182  0.58787474     0.12900
H595        H  0.74183855  0.25875500  0.65100201     0.12400
H596        H  0.81078986  0.32562965  0.70055543     0.12600
H597        H  0.73285953  0.24872593  0.58578706     0.15400
H598        H  0.85315453  0.23739826  0.55188400     0.14100
H599        H  0.00816375  0.43735007  0.69782130     0.11800
H600        H  0.87133560  0.42697484  0.72245648     0.13800
C601        C  0.56078559  0.10189992  0.80834704     0.19900
C602        C  0.58574323  0.06820116  0.82886295    -0.18200
C603        C  0.63170475  0.10088582  0.85650654    -0.10500
C604        C  0.65411344  0.16837448  0.86381100     0.22200
C605        C  0.63330797  0.20317884  0.84133512    -0.19800
C606        C  0.58712697  0.17041130  0.81390404    -0.10600
C607        C  0.69078897  0.20242964  0.89680050    -0.14800
C608        C  0.70694205  0.17393819  0.92327080    -0.28700
C609        C  0.50627665  0.06383033  0.78203562    -0.02900
C610        C  0.45850423  0.08076195  0.77294910    -0.39500
H611        H  0.56712841  0.01561366  0.82456413     0.13300
H612        H  0.64680908  0.07213786  0.87276385     0.12900
H613        H  0.65033727  0.25537217  0.84600816     0.12400
H614        H  0.57124839  0.19859007  0.79758713     0.12600
H615        H  0.69784839  0.25196770  0.90135732     0.15400
H616        H  0.70544427  0.12663540  0.91980585     0.14100
H617        H  0.50208805  0.01758790  0.77228915     0.11800
H618        H  0.45874895  0.12299028  0.78612111     0.13800
loop_ 
_geom_bond_atom_site_label_1 
_geom_bond_atom_site_label_2 
_geom_bond_distance 
_geom_bond_site_symmetry_2 
_ccdc_geom_bond_type 
N1            C5   1.356   1_556  A
N1          C311   1.353       .  A
N1          C361   1.433       .  S
C2          N310   1.351       .  A
C2            C3   1.386       .  A
C2          C299   1.478       .  S
C3          C313   1.373       .  A
C3            H6   1.082       .  S
C4            C5   1.384       .  A
C4          C312   1.374   1_554  A
C4            H7   1.082       .  S
C5          C281   1.486       .  S
N8           C12   1.357       .  A
N8          C318   1.360   1_554  A
N8           C48   1.439       .  S
C9          N317   1.359       .  A
C9           C10   1.384       .  A
C9          C265   1.488       .  S
C10         C320   1.370       .  A
C10          H13   1.082       .  S
C11          C12   1.386       .  A
C11         C319   1.369       .  A
C11          H14   1.082       .  S
C12         C247   1.480       .  S
N15          C19   1.346       .  A
N15         C325   1.354       .  A
N15          C86   1.430       .  S
C16         N324   1.354   1_554  A
C16          C17   1.386       .  A
C16         C209   1.485       .  S
C17         C327   1.374   1_554  A
C17          H20   1.082       .  S
C18          C19   1.386       .  A
C18         C326   1.377       .  A
C18          H21   1.082       .  S
C19         C229   1.471       .  S
N22          C26   1.360       .  A
N22         C332   1.357       .  A
N22         C393   1.439       .  S
C23         N331   1.358       .  A
C23          C24   1.389       .  A
C23         C173   1.483       .  S
C24         C334   1.372       .  A
C24          H27   1.082       .  S
C25          C26   1.383       .  A
C25         C333   1.368       .  A
C25          H28   1.082       .  S
C26         C191   1.489       .  S
N29          C30   1.350       .  A
N29         C342   1.354       .  A
N29          C60   1.431       .  S
C30          C31   1.386       .  A
C30         C157   1.475       .  S
C31         C341   1.374       .  A
C31          H34   1.083       .  S
C32          C33   1.383       .  A
C32         C340   1.373   1_554  A
C32          H35   1.082       .  S
C33         N338   1.353   1_554  A
C33         C137   1.480       .  S
N36          C37   1.356       .  A
N36         C349   1.358   1_554  A
N36          C59   1.438       .  S
C37          C38   1.387       .  A
C37         C103   1.480       .  S
C38         C348   1.371       .  A
C38          H41   1.082       .  S
C39          C40   1.382       .  A
C39         C347   1.366       .  A
C39          H42   1.082       .  S
C40         N345   1.362       .  A
C40         C119   1.489       .  S
O43         Mg45   2.139   1_565  S
O43        Mg360   2.169   1_455  S
O43          C78   1.234   1_455  S
C44          H83   1.081       .  S
C44          O57   1.235       .  S
C44          O81   1.270       .  A
Mg45        O383   2.166       .  S
Mg45         O85   2.240       .  S
Mg45         O56   2.295       .  S
Mg45        O398   2.265   1_545  S
O46         Mg71   2.157       .  S
O46        Mg397   2.170   1_565  S
O46          C67   1.235   1_565  S
O47          C78   1.268       .  A
O47         Mg71   2.293       .  S
C48          O50   1.273       .  A
C48          O62   1.272       .  A
O49          C77   1.269   1_565  A
O49         Mg51   2.300   1_455  S
O50         Mg82   2.287       .  S
Mg51         O57   2.158       .  S
Mg51        O352   2.166   1_554  S
Mg51         O65   2.289   1_655  S
Mg51        O362   2.310   1_554  S
C52         N310   1.432       .  S
C52          O90   1.269       .  A
C52          O58   1.275       .  A
O53          C60   1.276       .  A
O53        Mg360   2.313       .  S
H54          C67   1.081   1_565  S
C55          H80   1.081       .  S
C55          O69   1.234       .  S
C55          O70   1.268       .  A
O56          C79   1.269       .  A
O57        Mg380   2.160   1_554  S
O58        Mg397   2.314       .  S
C59          O72   1.273       .  A
C59          O64   1.273       .  A
C60          O87   1.272       .  A
Mg61         O68   2.151   1_655  S
Mg61        O378   2.162       .  S
Mg61         O63   2.300       .  S
Mg61         O90   2.257       .  S
Mg61        O371   2.280   1_655  S
O62        Mg370   2.288   1_454  S
O63          C67   1.270       .  A
O64        Mg380   2.290   1_554  S
O65          C84   1.273       .  A
O66          C86   1.276       .  A
O66        Mg391   2.317       .  S
O68        Mg391   2.174       .  S
O68          C79   1.234       .  S
O69         Mg88   2.146       .  S
O69        Mg370   2.163   1_554  S
O70         Mg82   2.293   1_655  S
Mg71        O366   2.167       .  S
Mg71         O87   2.265       .  S
Mg71        O373   2.294       .  S
O72         Mg88   2.282   1_565  S
H73          C78   1.080   1_455  S
O74         Mg82   2.160       .  S
O74        Mg354   2.159   1_554  S
O74          C77   1.234       .  S
H75          C77   1.082       .  S
H76          C79   1.081       .  S
O81         Mg88   2.302   1_565  S
Mg82        O377   2.174   1_554  S
Mg82        O375   2.302   1_554  S
C84         N331   1.437       .  S
C84          O89   1.274       .  A
O85          C86   1.268       .  A
Mg88        O355   2.168   1_544  S
Mg88        O367   2.327   1_554  S
O89        Mg354   2.292   1_564  S
C91         C155   1.527       .  S
C91         C175   1.528   1_655  S
C91         C263   1.530   1_655  S
C91         C283   1.527       .  S
C92         C101   1.528       .  S
C92         C193   1.525       .  S
C92         C211   1.522       .  S
C92         C301   1.529       .  S
C93         C121   1.527       .  S
C93         C139   1.521       .  S
C93         C227   1.524       .  S
C93         C245   1.527       .  S
C94          C95   1.403       .  A
C94          C99   1.408       .  A
C94         C102   1.482       .  S
C95          C96   1.396       .  A
C95         H104   1.084       .  S
C96          C97   1.406   1_565  A
C96         H105   1.081       .  S
C97          C98   1.402       .  A
C97         C100   1.481       .  S
C98          C99   1.397   1_545  A
C98         H106   1.084       .  S
C99         H107   1.080   1_565  S
C100        H108   1.087       .  S
C100        C101   1.349       .  D
C101        H109   1.085   1_545  S
C102        H110   1.088       .  S
C102        C103   1.345       .  D
C103        H111   1.083       .  S
C112        C113   1.408       .  A
C112        C117   1.408       .  A
C112        C120   1.494       .  S
C113        C114   1.403       .  A
C113        H122   1.084       .  S
C114        C115   1.406       .  A
C114        H123   1.080       .  S
C115        C116   1.403       .  A
C115        C118   1.487       .  S
C116        C117   1.396       .  A
C116        H124   1.085       .  S
C117        H125   1.077       .  S
C118        H126   1.088       .  S
C118        C119   1.350       .  D
C119        H127   1.084       .  S
C120        H128   1.087       .  S
C120        C121   1.353       .  D
C121        H129   1.081       .  S
C130        C131   1.404       .  A
C130        C135   1.406       .  A
C130        C138   1.483       .  S
C131        C132   1.398       .  A
C131        H140   1.085       .  S
C132        C133   1.407       .  A
C132        H141   1.081       .  S
C133        C134   1.401       .  A
C133        C136   1.479       .  S
C134        C135   1.396       .  A
C134        H142   1.085       .  S
C135        H143   1.081       .  S
C136        H144   1.087       .  S
C136        C137   1.343       .  D
C137        H145   1.085       .  S
C138        H146   1.088       .  S
C138        C139   1.348       .  D
C139        H147   1.086       .  S
C148        C149   1.403       .  A
C148        C153   1.406       .  A
C148        C156   1.480       .  S
C149        C150   1.396       .  A
C149        H158   1.084       .  S
C150        C151   1.407       .  A
C150        H159   1.080       .  S
C151        C152   1.405       .  A
C151        C154   1.484       .  S
C152        C153   1.397       .  A
C152        H160   1.084   1_655  S
C153        H161   1.080       .  S
C154        H162   1.088   1_655  S
C154        C155   1.351       .  D
C155        H163   1.084       .  S
C156        H164   1.088       .  S
C156        C157   1.345       .  D
C157        H165   1.084       .  S
C166        C167   1.405       .  A
C166        C171   1.403   1_455  A
C166        C174   1.483   1_455  S
C167        C168   1.397       .  A
C167        H176   1.083       .  S
C168        C169   1.404       .  A
C168        H177   1.083       .  S
C169        C170   1.407       .  A
C169        C172   1.484       .  S
C170        C171   1.399   1_455  A
C170        H178   1.083       .  S
C171        H179   1.083       .  S
C172        H180   1.087       .  S
C172        C173   1.348       .  D
C173        H181   1.084       .  S
C174        H182   1.086       .  S
C174        C175   1.351   1_655  D
C175        H183   1.085       .  S
C184        C185   1.410   1_565  A
C184        C189   1.399       .  A
C184        C192   1.481       .  S
C185        C186   1.407   1_545  A
C185        H194   1.082       .  S
C186        C187   1.410       .  A
C186        H195   1.081   1_565  S
C187        C188   1.403       .  A
C187        C190   1.487       .  S
C188        C189   1.390       .  A
C188        H196   1.084       .  S
C189        H197   1.084       .  S
C190        H198   1.088       .  S
C190        C191   1.348       .  D
C191        H199   1.083       .  S
C192        H200   1.087       .  S
C192        C193   1.347   1_565  D
C193        H201   1.087       .  S
C202        C203   1.406       .  A
C202        C207   1.408       .  A
C202        C210   1.492       .  S
C203        C204   1.401       .  A
C203        H212   1.082       .  S
C204        C205   1.407       .  A
C204        H213   1.081       .  S
C205        C206   1.403       .  A
C205        C208   1.487       .  S
C206        C207   1.395       .  A
C206        H214   1.083       .  S
C207        H215   1.080       .  S
C208        H216   1.085       .  S
C208        C209   1.347       .  D
C209        H217   1.082       .  S
C210        H218   1.088       .  S
C210        C211   1.351       .  D
C211        H219   1.083       .  S
C220        C221   1.403       .  A
C220        C225   1.407       .  A
C220        C228   1.481       .  S
C221        C222   1.394       .  A
C221        H230   1.084       .  S
C222        C223   1.407       .  A
C222        H231   1.079       .  S
C223        C224   1.403       .  A
C223        C226   1.483       .  S
C224        C225   1.395       .  A
C224        H232   1.084       .  S
C225        H233   1.080       .  S
C226        H234   1.088       .  S
C226        C227   1.349       .  D
C227        H235   1.083       .  S
C228        H236   1.088       .  S
C228        C229   1.343       .  D
C229        H237   1.083       .  S
C238        C239   1.403       .  A
C238        C243   1.408       .  A
C238        C246   1.483       .  S
C239        C240   1.394       .  A
C239        H248   1.083       .  S
C240        C241   1.406       .  A
C240        H249   1.080       .  S
C241        C242   1.405       .  A
C241        C244   1.485       .  S
C242        C243   1.399       .  A
C242        H250   1.083       .  S
C243        H251   1.080       .  S
C244        H252   1.087       .  S
C244        C245   1.351       .  D
C245        H253   1.083       .  S
C246        H254   1.087       .  S
C246        C247   1.346       .  D
C247        H255   1.082       .  S
C256        C257   1.404       .  A
C256        C261   1.406       .  A
C256        C264   1.487       .  S
C257        C258   1.398       .  A
C257        H266   1.084       .  S
C258        C259   1.409       .  A
C258        H267   1.077       .  S
C259        C260   1.407   1_455  A
C259        C262   1.495   1_455  S
C260        C261   1.402   1_655  A
C260        H268   1.084       .  S
C261        H269   1.080   1_455  S
C262        H270   1.087       .  S
C262        C263   1.353   1_655  D
C263        H271   1.081       .  S
C264        H272   1.087       .  S
C264        C265   1.349       .  D
C265        H273   1.084       .  S
C274        C275   1.405       .  A
C274        C279   1.408       .  A
C274        C282   1.490       .  S
C275        C276   1.400       .  A
C275        H284   1.084       .  S
C276        C277   1.407       .  A
C276        H285   1.082       .  S
C277        C278   1.404       .  A
C277        C280   1.486       .  S
C278        C279   1.399       .  A
C278        H286   1.084       .  S
C279        H287   1.081       .  S
C280        H288   1.087       .  S
C280        C281   1.347       .  D
C281        H289   1.085       .  S
C282        H290   1.088       .  S
C282        C283   1.350       .  D
C283        H291   1.085       .  S
C292        C293   1.405       .  A
C292        C297   1.404       .  A
C292        C300   1.482       .  S
C293        C294   1.399       .  A
C293        H302   1.084       .  S
C294        C295   1.407       .  A
C294        H303   1.080       .  S
C295        C296   1.404       .  A
C295        C298   1.483       .  S
C296        C297   1.393       .  A
C296        H304   1.084       .  S
C297        H305   1.082       .  S
C298        H306   1.088       .  S
C298        C299   1.347       .  D
C299        H307   1.084       .  S
C300        H308   1.086       .  S
C300        C301   1.353       .  D
C301        H309   1.086       .  S
N310        C314   1.358       .  A
C311        C312   1.387       .  A
C311        C608   1.480       .  S
C312        H315   1.082       .  S
C313        C314   1.385       .  A
C313        H316   1.082       .  S
C314        C590   1.488       .  S
N317        C321   1.354       .  A
N317        C357   1.436       .  S
C318        C319   1.384   1_556  A
C318        C574   1.486       .  S
C319        H322   1.082       .  S
C320        C321   1.386       .  A
C320        H323   1.082       .  S
C321        C556   1.478       .  S
N324        C328   1.349       .  A
N324        C395   1.429       .  S
C325        C326   1.386       .  A
C325        C518   1.482       .  S
C326        H329   1.082       .  S
C327        C328   1.385       .  A
C327        H330   1.082       .  S
C328        C538   1.474       .  S
N331        C335   1.355   1_554  A
C332        C333   1.387       .  A
C332        C482   1.480       .  S
C333        H336   1.082       .  S
C334        C335   1.380   1_554  A
C334        H337   1.082   1_554  S
C335        C500   1.480       .  S
N338        C339   1.351       .  A
N338        C369   1.431       .  S
C339        C340   1.387       .  A
C339        C466   1.476       .  S
C340        H343   1.082       .  S
C341        C342   1.384       .  A
C341        H344   1.081       .  S
C342        C446   1.481       .  S
N345        C346   1.360       .  A
N345        C368   1.441       .  S
C346        C347   1.387       .  A
C346        C412   1.483       .  S
C347        H350   1.082       .  S
C348        C349   1.384   1_554  A
C348        H351   1.082       .  S
C349        C428   1.486       .  S
O352       Mg354   2.138   1_665  S
O352        C387   1.235       .  S
C353        H392   1.080       .  S
C353        O366   1.235       .  S
C353        O390   1.270       .  A
Mg354       O394   2.255       .  S
Mg354       O365   2.298       .  S
O355       Mg380   2.153       .  S
O355        C376   1.235   1_565  S
O356        C387   1.269       .  A
O356       Mg380   2.297       .  S
C357        O359   1.274       .  A
C357        O371   1.271       .  A
O358        C386   1.269   1_565  A
O358       Mg360   2.299   1_455  S
O359       Mg391   2.291       .  S
Mg360       O366   2.164       .  S
Mg360       O374   2.308   1_655  S
C361        O399   1.270       .  A
C361        O367   1.278       .  A
O362        C369   1.274       .  A
H363        C376   1.079   1_565  S
C364        H389   1.083       .  S
C364        O378   1.234       .  S
C364        O379   1.269   1_655  A
O365        C388   1.269       .  A
C368        O381   1.275       .  A
C368        O373   1.274       .  A
C369        O396   1.271       .  A
Mg370       O377   2.147   1_655  S
Mg370       O372   2.298       .  S
Mg370       O399   2.255       .  S
O372        C376   1.269       .  A
O374        C393   1.275       .  A
O375        C395   1.274       .  A
O377        C388   1.235       .  S
O378       Mg397   2.168       .  S
O379       Mg391   2.304       .  S
Mg380       O396   2.262       .  S
O381       Mg397   2.301   1_565  S
H382        C387   1.081   1_455  S
O383       Mg391   2.156       .  S
O383        C386   1.235       .  S
H384        C386   1.082       .  S
H385        C388   1.083       .  S
O390       Mg397   2.300   1_565  S
C393        O398   1.269       .  A
O394        C395   1.270       .  A
C400        C464   1.527       .  S
C400        C484   1.525   1_655  S
C400        C572   1.526   1_655  S
C400        C592   1.526       .  S
C401        C410   1.531   1_545  S
C401        C502   1.523       .  S
C401        C520   1.523       .  S
C401        C610   1.529       .  S
C402        C430   1.523       .  S
C402        C448   1.522       .  S
C402        C536   1.524       .  S
C402        C554   1.522       .  S
C403        C404   1.406       .  A
C403        C408   1.405       .  A
C403        C411   1.484       .  S
C404        C405   1.397       .  A
C404        H413   1.083       .  S
C405        C406   1.405       .  A
C405        H414   1.082       .  S
C406        C407   1.405   1_565  A
C406        C409   1.482   1_565  S
C407        C408   1.398   1_545  A
C407        H415   1.083       .  S
C408        H416   1.082       .  S
C409        H417   1.087       .  S
C409        C410   1.351   1_545  D
C410        H418   1.084       .  S
C411        H419   1.087       .  S
C411        C412   1.351       .  D
C412        H420   1.083       .  S
C421        C422   1.403       .  A
C421        C426   1.406       .  A
C421        C429   1.484       .  S
C422        C423   1.401       .  A
C422        H431   1.085       .  S
C423        C424   1.409       .  A
C423        H432   1.078       .  S
C424        C425   1.404       .  A
C424        C427   1.487       .  S
C425        C426   1.394       .  A
C425        H433   1.085       .  S
C426        H434   1.080       .  S
C427        H435   1.087       .  S
C427        C428   1.348       .  D
C428        H436   1.081       .  S
C429        H437   1.088       .  S
C429        C430   1.348       .  D
C430        H438   1.085       .  S
C439        C440   1.403       .  A
C439        C444   1.407       .  A
C439        C447   1.485       .  S
C440        C441   1.398       .  A
C440        H449   1.084       .  S
C441        C442   1.407       .  A
C441        H450   1.081       .  S
C442        C443   1.403       .  A
C442        C445   1.483       .  S
C443        C444   1.397       .  A
C443        H451   1.085       .  S
C444        H452   1.081       .  S
C445        H453   1.089       .  S
C445        C446   1.344       .  D
C446        H454   1.086       .  S
C447        H455   1.088       .  S
C447        C448   1.348       .  D
C448        H456   1.085       .  S
C457        C458   1.403       .  A
C457        C462   1.406       .  A
C457        C465   1.479       .  S
C458        C459   1.395       .  A
C458        H467   1.083       .  S
C459        C460   1.406       .  A
C459        H468   1.082       .  S
C460        C461   1.404       .  A
C460        C463   1.481       .  S
C461        C462   1.396       .  A
C461        H469   1.082   1_655  S
C462        H470   1.083       .  S
C463        H471   1.087   1_655  S
C463        C464   1.350       .  D
C464        H472   1.083       .  S
C465        H473   1.087       .  S
C465        C466   1.345       .  D
C466        H474   1.084       .  S
C475        C476   1.406       .  A
C475        C480   1.402       .  A
C475        C483   1.481   1_455  S
C476        C477   1.396       .  A
C476        H485   1.081       .  S
C477        C478   1.404       .  A
C477        H486   1.084       .  S
C478        C479   1.408       .  A
C478        C481   1.484       .  S
C479        C480   1.397       .  A
C479        H487   1.079       .  S
C480        H488   1.084   1_455  S
C481        H489   1.087       .  S
C481        C482   1.347       .  D
C482        H490   1.082       .  S
C483        H491   1.088       .  S
C483        C484   1.349   1_655  D
C484        H492   1.085       .  S
C493        C494   1.408       .  A
C493        C498   1.400       .  A
C493        C501   1.482       .  S
C494        C495   1.403       .  A
C494        H503   1.084   1_565  S
C495        C496   1.409       .  A
C495        H504   1.080       .  S
C496        C497   1.404       .  A
C496        C499   1.486       .  S
C497        C498   1.394       .  A
C497        H505   1.085       .  S
C498        H506   1.082       .  S
C499        H507   1.090       .  S
C499        C500   1.347       .  D
C500        H508   1.084       .  S
C501        H509   1.087       .  S
C501        C502   1.346   1_565  D
C502        H510   1.087       .  S
C511        C512   1.405       .  A
C511        C516   1.408       .  A
C511        C519   1.487       .  S
C512        C513   1.398       .  A
C512        H521   1.083       .  S
C513        C514   1.406       .  A
C513        H522   1.083       .  S
C514        C515   1.402       .  A
C514        C517   1.482       .  S
C515        C516   1.397       .  A
C515        H523   1.083       .  S
C516        H524   1.081       .  S
C517        H525   1.086       .  S
C517        C518   1.345       .  D
C518        H526   1.085       .  S
C519        H527   1.087       .  S
C519        C520   1.350       .  D
C520        H528   1.084       .  S
C529        C530   1.403       .  A
C529        C534   1.407       .  A
C529        C537   1.478       .  S
C530        C531   1.395       .  A
C530        H539   1.084       .  S
C531        C532   1.405       .  A
C531        H540   1.081       .  S
C532        C533   1.402       .  A
C532        C535   1.478       .  S
C533        C534   1.395       .  A
C533        H541   1.084       .  S
C534        H542   1.081       .  S
C535        H543   1.088       .  S
C535        C536   1.349       .  D
C536        H544   1.085       .  S
C537        H545   1.088       .  S
C537        C538   1.343       .  D
C538        H546   1.085       .  S
C547        C548   1.403       .  A
C547        C552   1.407       .  A
C547        C555   1.480       .  S
C548        C549   1.394       .  A
C548        H557   1.082       .  S
C549        C550   1.406       .  A
C549        H558   1.082       .  S
C550        C551   1.403       .  A
C550        C553   1.481       .  S
C551        C552   1.397       .  A
C551        H559   1.082       .  S
C552        H560   1.082       .  S
C553        H561   1.086       .  S
C553        C554   1.349       .  D
C554        H562   1.083       .  S
C555        H563   1.086       .  S
C555        C556   1.345       .  D
C556        H564   1.082       .  S
C565        C566   1.405       .  A
C565        C570   1.407       .  A
C565        C573   1.488       .  S
C566        C567   1.396       .  A
C566        H575   1.084       .  S
C567        C568   1.406       .  A
C567        H576   1.080       .  S
C568        C569   1.405   1_455  A
C568        C571   1.487   1_455  S
C569        C570   1.401   1_655  A
C569        H577   1.084       .  S
C570        H578   1.080   1_455  S
C571        H579   1.088       .  S
C571        C572   1.351   1_655  D
C572        H580   1.085       .  S
C573        H581   1.088       .  S
C573        C574   1.350       .  D
C574        H582   1.082       .  S
C583        C584   1.405       .  A
C583        C588   1.408       .  A
C583        C591   1.491       .  S
C584        C585   1.401       .  A
C584        H593   1.085       .  S
C585        C586   1.408       .  A
C585        H594   1.081       .  S
C586        C587   1.404       .  A
C586        C589   1.487       .  S
C587        C588   1.398       .  A
C587        H595   1.084       .  S
C588        H596   1.080       .  S
C589        H597   1.087       .  S
C589        C590   1.348       .  D
C590        H598   1.085       .  S
C591        H599   1.087   1_655  S
C591        C592   1.349       .  D
C592        H600   1.084       .  S
C601        C602   1.403       .  A
C601        C606   1.404       .  A
C601        C609   1.481       .  S
C602        C603   1.399       .  A
C602        H611   1.083       .  S
C603        C604   1.407       .  A
C603        H612   1.080       .  S
C604        C605   1.406       .  A
C604        C607   1.485       .  S
C605        C606   1.395       .  A
C605        H613   1.083       .  S
C606        H614   1.082       .  S
C607        H615   1.087       .  S
C607        C608   1.349       .  D
C608        H616   1.083       .  S
C609        H617   1.085       .  S
C609        C610   1.352       .  D
C610        H618   1.086       .  S
