geometry optimzed in LAMMPS
_audit_creation_date              2020-11-30 
_audit_creation_method            'lammps2cif' 
_symmetry_space_group_name_H-M    'P1' 
_symmetry_Int_Tables_number       1 
_symmetry_cell_setting            triclinic 
loop_ 
_symmetry_equiv_pos_as_xyz 
  x,y,z 
_cell_length_a                    46.77355963 
_cell_length_b                    46.679868856038716 
_cell_length_c                    30.37722634612207 
_cell_angle_alpha                 73.17527673928024 
_cell_angle_beta                  73.25073730070507 
_cell_angle_gamma                 88.24566908959221 
loop_ 
_atom_site_label 
_atom_site_type_symbol 
_atom_site_fract_x 
_atom_site_fract_y 
_atom_site_fract_z 
_atom_site_charge 
N1          N  0.15798606  0.51895284  0.21589609    -0.01800
C2          C  0.18783119  0.01867718  0.21061855     0.00800
C3          C  0.20381823  0.02257183  0.16310999    -0.22100
C4          C  0.18325427  0.02557220  0.13799107    -0.22300
C5          C  0.15547170  0.52322511  0.17115316     0.00700
H6          H  0.22795279  0.02393766  0.14813201     0.14500
H7          H  0.18796822  0.02897542  0.09978168     0.14500
N8          N  0.27857093  0.01402790  0.34776541    -0.01800
C9          C  0.24917573  0.01673752  0.35032421     0.00800
C10         C  0.23226044  0.01441235  0.39687104    -0.22100
C11         C  0.25174981  0.00990213  0.42410242    -0.22300
C12         C  0.27994685  0.00977391  0.39319715     0.00700
H13         H  0.20815913  0.01512802  0.40987291     0.14500
H14         H  0.24605179  0.00730405  0.46220979     0.14500
N15         N  0.47244464  0.20426876  0.21572999    -0.01800
C16         C  0.47086834  0.23397504  0.21182454     0.00800
C17         C  0.47379056  0.25048434  0.16479704    -0.22100
C18         C  0.47748704  0.23039289  0.13865703    -0.22300
C19         C  0.47653764  0.20230438  0.17070482     0.00700
H20         H  0.47396362  0.27467583  0.15078349     0.14500
H21         H  0.48031666  0.23562549  0.10051851     0.14500
N22         N  0.46591188  0.32407986  0.34940279    -0.01800
C23         C  0.46786033  0.29435502  0.35345860     0.00800
C24         C  0.46588726  0.27803829  0.40024223    -0.22100
C25         C  0.46239429  0.29822168  0.42614844    -0.22300
C26         C  0.46248448  0.32616344  0.39423153     0.00700
H27         H  0.46621865  0.25389857  0.41427576     0.14500
H28         H  0.46018627  0.29315481  0.46407109     0.14500
N29         N  0.45702417  0.07937730  0.05749936    -0.04400
N30         N  0.44853260  0.09520582  0.08824339    -0.56600
N31         N  0.48359236  0.07875496  0.44225980    -0.04100
N32         N  0.49362635  0.09671458  0.39785974    -0.58700
N33         N  0.45424316  0.07850633  0.45762262    -0.03700
N34         N  0.44381973  0.09640295  0.42393953    -0.56500
N35         N  0.48637284  0.08012750  0.04172703    -0.03400
N36         N  0.49843722  0.09652638  0.06125560    -0.59000
C37         C  0.47462852  0.10570143  0.09036389     0.97700
C38         C  0.46859739  0.10750251  0.38657613     0.97500
N39         N  0.03177831  0.50006733  0.45757406    -0.04600
N40         N  0.04972202  0.48965495  0.42393440    -0.57100
N41         N  0.03403484  0.03190272  0.04162209    -0.02700
N42         N  0.05081822  0.04370226  0.06085131    -0.58400
N43         N  0.03302218  0.50247485  0.05736133    -0.04700
N44         N  0.04911151  0.49366939  0.08764407    -0.57400
N45         N  0.03222303  0.02950977  0.44227177    -0.02400
N46         N  0.05033446  0.03959792  0.39805171    -0.58500
Mn47       Mn  0.00965057  0.05568473  0.99105896     1.18400
C48         C  0.06105353  0.01454252  0.38670558     0.99800
C49         C  0.06001943  0.01965491  0.08964117     1.00500
N50         N  0.40326463  0.02649033  0.50821803    -0.04700
N51         N  0.38688328  0.03538260  0.47838749    -0.61000
N52         N  0.40390026  0.99969389  0.12334091    -0.03500
N53         N  0.38557663  0.48993001  0.16747401    -0.61700
N54         N  0.40456451  0.02913912  0.10769495    -0.04200
N55         N  0.38668181  0.03987382  0.14091174    -0.61200
N56         N  0.40201148  0.99703338  0.52419579    -0.03100
N57         N  0.38462421  0.48531888  0.50574607    -0.61900
Mn58       Mn  0.42916505  0.05403001  0.03271016     1.10700
C59         C  0.37546598  0.00945458  0.47702493     1.01000
C60         C  0.37505650  0.01521037  0.17830268     1.01100
N61         N  0.48215430  0.45035694  0.10809411    -0.04200
N62         N  0.49265623  0.43203093  0.14130612    -0.59600
N63         N  0.45003676  0.44842081  0.52439098    -0.03500
N64         N  0.43828788  0.43115608  0.50575327    -0.56300
N65         N  0.47941299  0.44943456  0.50868318    -0.04800
N66         N  0.48822715  0.43299984  0.47899478    -0.59100
N67         N  0.45278665  0.45008058  0.12368602    -0.03800
N68         N  0.44286444  0.43166319  0.16781421    -0.56300
Mn69       Mn  0.00720192  0.47497479  0.03291335     1.20200
Mn70       Mn  0.42654808  0.47318524  0.07483183     1.10100
Cl71       Cl  0.46812262  0.01444811  0.03287254    -0.84300
C72         C  0.46795774  0.42061813  0.17864974     0.98000
C73         C  0.46236471  0.42181866  0.47728207     0.97800
C74         C  0.48522329  0.37435276  0.39195908     0.25300
C75         C  0.46045154  0.35386006  0.40853556    -0.22800
C76         C  0.43539182  0.35717546  0.44504590     0.20200
C77         C  0.43543442  0.38004801  0.46615843     0.25200
C78         C  0.46087916  0.39970128  0.45153810    -0.22800
C79         C  0.48554635  0.39702353  0.41351841     0.20100
F80         F  0.01030277  0.41585802  0.39797967    -0.12700
F81         F  0.50984282  0.37121036  0.35714862    -0.15100
F82         F  0.41124800  0.38174564  0.50276891    -0.15100
F83         F  0.41124614  0.33745904  0.46144234    -0.12700
C84         C  0.49118338  0.35330459  0.26508689     0.25300
C85         C  0.46675606  0.34844145  0.30674733    -0.22800
C86         C  0.44293480  0.36749096  0.30617944     0.20200
C87         C  0.44340664  0.39090445  0.26476392     0.25200
C88         C  0.46788644  0.39599097  0.22290648    -0.22800
C89         C  0.49184945  0.37688253  0.22364690     0.20100
F90         F  0.01564794  0.38046902  0.18393803    -0.12700
F91         F  0.51457315  0.33534798  0.26477507    -0.15100
F92         F  0.41989634  0.40874122  0.26584408    -0.15100
F93         F  0.41869385  0.36278072  0.34544599    -0.12700
C94         C  0.99509005  0.16106397  0.25975292     0.25300
C95         C  0.47107750  0.17976203  0.25832967    -0.22800
C96         C  0.44574859  0.17412248  0.29870130     0.20200
C97         C  0.44448789  0.15022501  0.33997996     0.25200
C98         C  0.46889346  0.13183199  0.34197242    -0.22800
C99         C  0.99413951  0.13750077  0.30114469     0.20100
F100        F  0.01794839  0.12011357  0.30103524    -0.12700
F101        F  0.01990751  0.16624137  0.22132838    -0.15100
F102        F  0.41959940  0.14555248  0.37824114    -0.15100
F103        F  0.42204308  0.19155344  0.29777212    -0.12700
C104        C  0.45379652  0.15339636  0.17548508     0.24700
C105        C  0.47818384  0.17453439  0.15658407    -0.22800
C106        C  0.50254335  0.17133697  0.11891821     0.20200
C107        C  0.50200473  0.14812455  0.09872877     0.25200
C108        C  0.47678560  0.12793952  0.11552858    -0.22800
C109        C  0.45304262  0.13027465  0.15498749     0.20100
F110        F  0.42881127  0.11059042  0.17304894    -0.12700
F111        F  0.42986669  0.15628771  0.21158730    -0.15100
F112        F  0.02543589  0.14658801  0.06090482    -0.15100
F113        F  0.02648402  0.19141234  0.10059015    -0.12700
C114        C  0.49041585  0.24270454  0.27553464     0.25300
C115        C  0.46910734  0.24803349  0.25011449    -0.22800
C116        C  0.44802324  0.26960500  0.25744770     0.20200
C117        C  0.44785546  0.28520092  0.29042642     0.25200
C118        C  0.46931224  0.28003774  0.31556221    -0.22800
C119        C  0.49051118  0.25860257  0.30800507     0.20100
F120        F  0.01169081  0.25346849  0.33153717    -0.12700
F121        F  0.01200812  0.22319482  0.26733358    -0.15100
F122        F  0.42601619  0.30439604  0.29914449    -0.15100
F123        F  0.42735119  0.27532121  0.23294730    -0.12700
C124        C  0.32924409  0.03097584  0.38960173     0.25300
C125        C  0.30723588  0.00733495  0.40878545    -0.22800
C126        C  0.30890794  0.98343624  0.44842062     0.20200
C127        C  0.33174590  0.98353787  0.46956325     0.25200
C128        C  0.35307653  0.00786932  0.45182935    -0.22800
C129        C  0.35194370  0.03131291  0.41107551     0.20100
F130        F  0.37245749  0.05488477  0.39256671    -0.12700
F131        F  0.32758355  0.05475791  0.35225755    -0.15100
F132        F  0.33185072  0.46066741  0.50911213    -0.15100
F133        F  0.28768226  0.46046140  0.46777140    -0.12700
C134        C  0.34280100  0.98938611  0.26231186     0.25300
C135        C  0.35070281  0.01541048  0.22258561    -0.22800
C136        C  0.33461968  0.04125485  0.22547277     0.20200
C137        C  0.31093775  0.04074594  0.26653732     0.25200
C138        C  0.30319535  0.01471798  0.30580872    -0.22800
C139        C  0.31954858  0.98921257  0.30360275     0.20100
F140        F  0.31223638  0.46374523  0.34102651    -0.12700
F141        F  0.35754536  0.46396849  0.26136239    -0.15100
F142        F  0.29578367  0.06583530  0.26843256    -0.15100
F143        F  0.34134662  0.06691545  0.18833057    -0.12700
C144        C  0.09192761  0.04069752  0.30202915     0.25300
C145        C  0.08566099  0.01499499  0.34233474    -0.22800
C146        C  0.10373979  0.49035859  0.34002212     0.20200
C147        C  0.12773960  0.49173704  0.29881009     0.25200
C148        C  0.13382712  0.01748569  0.25889534    -0.22800
C149        C  0.11559538  0.04179668  0.26082557     0.20100
F150        F  0.12124542  0.06700579  0.22289921    -0.12700
F151        F  0.07499569  0.06483419  0.30216879    -0.15100
F152        F  0.14475487  0.46775177  0.29749300    -0.15100
F153        F  0.09860020  0.46510884  0.37787811    -0.12700
C154        C  0.12170505  0.04947218  0.12500224     0.25300
C155        C  0.12749533  0.02383170  0.15819691    -0.22800
C156        C  0.10947240  0.49745161  0.17208290     0.20200
C157        C  0.08689544  0.49621435  0.15076607     0.25200
C158        C  0.08186313  0.02156247  0.11568715    -0.22800
C159        C  0.09891996  0.04850533  0.10419199     0.20100
F160        F  0.09478800  0.07355250  0.07086131    -0.12700
F161        F  0.13901072  0.07518019  0.11130814    -0.15100
F162        F  0.07063983  0.46996402  0.16343223    -0.15100
F163        F  0.11509725  0.47233428  0.20375899    -0.12700
C164        C  0.19823443  0.03978795  0.27140529     0.25300
C165        C  0.20249066  0.01753463  0.24787130    -0.22800
C166        C  0.22386055  0.49628815  0.25541045     0.20200
C167        C  0.24003048  0.49660668  0.28741841     0.25200
C168        C  0.23557026  0.01866916  0.31144062    -0.22800
C169        C  0.21464685  0.04033411  0.30301108     0.20100
F170        F  0.21024213  0.06214124  0.32531701    -0.12700
F171        F  0.17910018  0.06166086  0.26236319    -0.15100
F172        F  0.25882637  0.47445584  0.29670101    -0.15100
F173        F  0.22870119  0.47490525  0.23223085    -0.12700
N174        N  0.15798606  0.51895281  0.71589606    -0.01800
C175        C  0.18783118  0.01867721  0.71061855     0.00800
C176        C  0.20381827  0.02257189  0.66310998    -0.22100
C177        C  0.18325431  0.02557229  0.63799097    -0.22300
C178        C  0.15547171  0.52322507  0.67115313     0.00700
H179        H  0.22795268  0.02393772  0.64813211     0.14500
H180        H  0.18796824  0.02897550  0.59978194     0.14500
N181        N  0.27857095  0.01402793  0.84776542    -0.01800
C182        C  0.24917574  0.01673753  0.85032425     0.00800
C183        C  0.23226048  0.01441229  0.89687111    -0.22100
C184        C  0.25174985  0.00990207  0.92410248    -0.22300
C185        C  0.27994689  0.00977392  0.89319716     0.00700
H186        H  0.20815910  0.01512792  0.90987305     0.14500
H187        H  0.24605185  0.00730393  0.96220983     0.14500
N188        N  0.47244463  0.20426876  0.71572996    -0.01800
C189        C  0.47086831  0.23397504  0.71182454     0.00800
C190        C  0.47379060  0.25048438  0.66479702    -0.22100
C191        C  0.47748712  0.23039292  0.63865694    -0.22300
C192        C  0.47653765  0.20230439  0.67070480     0.00700
H193        H  0.47396370  0.27467574  0.65078352     0.14500
H194        H  0.48031677  0.23562549  0.60051881     0.14500
N195        N  0.46591187  0.32407989  0.84940273    -0.01800
C196        C  0.46786028  0.29435505  0.85345854     0.00800
C197        C  0.46588723  0.27803828  0.90024219    -0.22100
C198        C  0.46239435  0.29822171  0.92614829    -0.22300
C199        C  0.46248455  0.32616346  0.89423146     0.00700
H200        H  0.46621858  0.25389871  0.91427563     0.14500
H201        H  0.46018635  0.29315478  0.96407132     0.14500
N202        N  0.45702416  0.07937730  0.55749931    -0.04400
N203        N  0.44853260  0.09520582  0.58824340    -0.56600
N204        N  0.48359241  0.07875500  0.94225983    -0.04100
N205        N  0.49362643  0.09671464  0.89785976    -0.58700
N206        N  0.45424323  0.07850635  0.95762263    -0.03700
N207        N  0.44381979  0.09640297  0.92393951    -0.56500
N208        N  0.48637282  0.08012749  0.54172700    -0.03400
N209        N  0.49843722  0.09652634  0.56125561    -0.59000
C210        C  0.47462852  0.10570139  0.59036392     0.97700
C211        C  0.46859745  0.10750253  0.88657614     0.97500
N212        N  0.03177832  0.50006732  0.95757410    -0.04600
N213        N  0.04972200  0.48965496  0.92393440    -0.57100
N214        N  0.03403483  0.03190276  0.54162201    -0.02700
N215        N  0.05081820  0.04370232  0.56085122    -0.58400
N216        N  0.03302214  0.50247483  0.55736132    -0.04700
N217        N  0.04911145  0.49366935  0.58764409    -0.57400
N218        N  0.03222305  0.02950975  0.94227184    -0.02400
N219        N  0.05033448  0.03959792  0.89805173    -0.58500
Mn220      Mn  0.00965054  0.05568472  0.49105889     1.18400
C221        C  0.06105351  0.01454250  0.88670562     0.99800
C222        C  0.06001938  0.01965498  0.58964116     1.00500
N223        N  0.40326467  0.02649035  0.00821802    -0.04700
N224        N  0.38688329  0.03538260  0.97838753    -0.61000
N225        N  0.40390024  0.99969389  0.62334090    -0.03500
N226        N  0.38557663  0.48993005  0.66747403    -0.61700
N227        N  0.40456451  0.02913910  0.60769498    -0.04200
N228        N  0.38668183  0.03987380  0.64091180    -0.61200
N229        N  0.40201154  0.99703338  0.02419575    -0.03100
N230        N  0.38462427  0.48531887  0.00574601    -0.61900
Mn231      Mn  0.42916502  0.05403000  0.53271016     1.10700
C232        C  0.37546601  0.00945457  0.97702493     1.01000
C233        C  0.37505653  0.01521035  0.67830271     1.01100
N234        N  0.48215426  0.45035694  0.60809406    -0.04200
N235        N  0.49265620  0.43203092  0.64130604    -0.59600
N236        N  0.45003680  0.44842079  0.02439098    -0.03500
N237        N  0.43828790  0.43115608  0.00575324    -0.56300
N238        N  0.47941300  0.44943455  0.00868319    -0.04800
N239        N  0.48822717  0.43299986  0.97899472    -0.59100
N240        N  0.45278661  0.45008060  0.62368601    -0.03800
N241        N  0.44286441  0.43166322  0.66781419    -0.56300
Mn242      Mn  0.00720189  0.47497480  0.53291332     1.20200
Mn243      Mn  0.42654805  0.47318526  0.57483184     1.10100
Cl244      Cl  0.46812258  0.01444810  0.53287253    -0.84300
C245        C  0.46795771  0.42061813  0.67864968     0.98000
C246        C  0.46236474  0.42181868  0.97728202     0.97800
C247        C  0.48522337  0.37435275  0.89195908     0.25300
C248        C  0.46045162  0.35386006  0.90853550    -0.22800
C249        C  0.43539187  0.35717545  0.94504581     0.20200
C250        C  0.43543445  0.38004800  0.96615836     0.25200
C251        C  0.46087919  0.39970126  0.95153809    -0.22800
C252        C  0.48554642  0.39702349  0.91351847     0.20100
F253        F  0.01030286  0.41585795  0.89797979    -0.12700
F254        F  0.50984289  0.37121040  0.85714855    -0.15100
F255        F  0.41124800  0.38174562  0.00276880    -0.15100
F256        F  0.41124619  0.33745904  0.96144216    -0.12700
C257        C  0.49118336  0.35330460  0.76508681     0.25300
C258        C  0.46675605  0.34844149  0.80674728    -0.22800
C259        C  0.44293481  0.36749103  0.80617939     0.20200
C260        C  0.44340664  0.39090449  0.76476385     0.25200
C261        C  0.46788643  0.39599099  0.72290641    -0.22800
C262        C  0.49184944  0.37688255  0.72364684     0.20100
F263        F  0.01564798  0.38046911  0.68393802    -0.12700
F264        F  0.51457312  0.33534799  0.76477498    -0.15100
F265        F  0.41989635  0.40874128  0.76584398    -0.15100
F266        F  0.41869385  0.36278083  0.84544594    -0.12700
C267        C  0.99509006  0.16106396  0.75975284     0.25300
C268        C  0.47107751  0.17976202  0.75832964    -0.22800
C269        C  0.44574862  0.17412247  0.79870128     0.20200
C270        C  0.44448793  0.15022498  0.83997992     0.25200
C271        C  0.46889351  0.13183199  0.84197238    -0.22800
C272        C  0.99413955  0.13750077  0.80114463     0.20100
F273        F  0.01794843  0.12011356  0.80103514    -0.12700
F274        F  0.01990749  0.16624132  0.72132824    -0.15100
F275        F  0.41959941  0.14555241  0.87824107    -0.15100
F276        F  0.42204310  0.19155342  0.79777211    -0.12700
C277        C  0.45379652  0.15339634  0.67548508     0.24700
C278        C  0.47818382  0.17453441  0.65658402    -0.22800
C279        C  0.50254330  0.17133702  0.61891810     0.20200
C280        C  0.50200471  0.14812456  0.59872872     0.25200
C281        C  0.47678560  0.12793951  0.61552857    -0.22800
C282        C  0.45304263  0.13027462  0.65498750     0.20100
F283        F  0.42881133  0.11059033  0.67304905    -0.12700
F284        F  0.42986672  0.15628764  0.71158741    -0.15100
F285        F  0.02543592  0.14658800  0.56090483    -0.15100
F286        F  0.02648393  0.19141245  0.60058995    -0.12700
C287        C  0.49041578  0.24270456  0.77553464     0.25300
C288        C  0.46910727  0.24803350  0.75011449    -0.22800
C289        C  0.44802320  0.26960504  0.75744764     0.20200
C290        C  0.44785541  0.28520096  0.79042637     0.25200
C291        C  0.46931219  0.28003778  0.81556216    -0.22800
C292        C  0.49051114  0.25860262  0.80800500     0.20100
F293        F  0.01169082  0.25346857  0.83153706    -0.12700
F294        F  0.01200804  0.22319478  0.76733367    -0.15100
F295        F  0.42601613  0.30439608  0.79914445    -0.15100
F296        F  0.42735120  0.27532129  0.73294714    -0.12700
C297        C  0.32924416  0.03097583  0.88960170     0.25300
C298        C  0.30723593  0.00733495  0.90878544    -0.22800
C299        C  0.30890798  0.98343624  0.94842063     0.20200
C300        C  0.33174595  0.98353787  0.96956325     0.25200
C301        C  0.35307659  0.00786931  0.95182933    -0.22800
C302        C  0.35194379  0.03131288  0.91107546     0.20100
F303        F  0.37245762  0.05488471  0.89256661    -0.12700
F304        F  0.32758364  0.05475790  0.85225751    -0.15100
F305        F  0.33185070  0.46066745  0.00911215    -0.15100
F306        F  0.28768230  0.46046142  0.96777132    -0.12700
C307        C  0.34280101  0.98938608  0.76231189     0.25300
C308        C  0.35070284  0.01541046  0.72258565    -0.22800
C309        C  0.33461973  0.04125483  0.72547280     0.20200
C310        C  0.31093777  0.04074593  0.76653729     0.25200
C311        C  0.30319537  0.01471798  0.80580872    -0.22800
C312        C  0.31954858  0.98921256  0.80360277     0.20100
F313        F  0.31223638  0.46374528  0.84102653    -0.12700
F314        F  0.35754541  0.46396855  0.76136244    -0.15100
F315        F  0.29578363  0.06583527  0.76843243    -0.15100
F316        F  0.34134671  0.06691543  0.68833059    -0.12700
C317        C  0.09192759  0.04069749  0.80202918     0.25300
C318        C  0.08566097  0.01499496  0.84233475    -0.22800
C319        C  0.10373978  0.49035861  0.84002216     0.20200
C320        C  0.12773959  0.49173705  0.79881013     0.25200
C321        C  0.13382710  0.01748567  0.75889534    -0.22800
C322        C  0.11559539  0.04179667  0.76082561     0.20100
F323        F  0.12124548  0.06700582  0.72289933    -0.12700
F324        F  0.07499566  0.06483416  0.80216881    -0.15100
F325        F  0.14475487  0.46775178  0.79749312    -0.15100
F326        F  0.09860017  0.46510889  0.87787818    -0.12700
C327        C  0.12170505  0.04947228  0.62500216     0.25300
C328        C  0.12749534  0.02383180  0.65819680    -0.22800
C329        C  0.10947244  0.49745154  0.67208281     0.20200
C330        C  0.08689546  0.49621428  0.65076600     0.25200
C331        C  0.08186309  0.02156257  0.61568713    -0.22800
C332        C  0.09891991  0.04850543  0.60419195     0.20100
F333        F  0.09478793  0.07355260  0.57086130    -0.12700
F334        F  0.13901071  0.07518029  0.61130802    -0.15100
F335        F  0.07063985  0.46996395  0.66343219    -0.15100
F336        F  0.11509731  0.47233422  0.70375886    -0.12700
C337        C  0.19823442  0.03978798  0.77140531     0.25300
C338        C  0.20249063  0.01753466  0.74787135    -0.22800
C339        C  0.22386052  0.49628812  0.75541045     0.20200
C340        C  0.24003045  0.49660663  0.78741842     0.25200
C341        C  0.23557024  0.01866916  0.81144067    -0.22800
C342        C  0.21464683  0.04033412  0.80301115     0.20100
F343        F  0.21024210  0.06214124  0.82531709    -0.12700
F344        F  0.17910023  0.06166094  0.76236315    -0.15100
F345        F  0.25882639  0.47445583  0.79670093    -0.15100
F346        F  0.22870115  0.47490523  0.73223084    -0.12700
N347        N  0.15798605  0.01895283  0.21589611    -0.01800
C348        C  0.18783121  0.51867720  0.21061854     0.00800
C349        C  0.20381825  0.52257186  0.16310998    -0.22100
C350        C  0.18325431  0.52557224  0.13799104    -0.22300
C351        C  0.15547167  0.02322508  0.17115319     0.00700
H352        H  0.22795284  0.52393770  0.14813199     0.14500
H353        H  0.18796826  0.52897548  0.09978166     0.14500
N354        N  0.27857095  0.51402791  0.34776542    -0.01800
C355        C  0.24917575  0.51673753  0.35032421     0.00800
C356        C  0.23226048  0.51441230  0.39687104    -0.22100
C357        C  0.25174981  0.50990205  0.42410249    -0.22300
C358        C  0.27994687  0.50977389  0.39319716     0.00700
H359        H  0.20815907  0.51512795  0.40987296     0.14500
H360        H  0.24605181  0.50730394  0.46220961     0.14500
N361        N  0.47244464  0.70426874  0.21573000    -0.01800
C362        C  0.47086835  0.73397502  0.21182453     0.00800
C363        C  0.47379055  0.75048431  0.16479703    -0.22100
C364        C  0.47748701  0.73039284  0.13865706    -0.22300
C365        C  0.47653761  0.70230434  0.17070485     0.00700
H366        H  0.47396363  0.77467581  0.15078343     0.14500
H367        H  0.48031664  0.73562544  0.10051849     0.14500
N368        N  0.46591186  0.82407986  0.34940278    -0.01800
C369        C  0.46786033  0.79435503  0.35345857     0.00800
C370        C  0.46588726  0.77803830  0.40024221    -0.22100
C371        C  0.46239429  0.79822169  0.42614840    -0.22300
C372        C  0.46248448  0.82616345  0.39423150     0.00700
H373        H  0.46621864  0.75389858  0.41427574     0.14500
H374        H  0.46018627  0.79315481  0.46407111     0.14500
N375        N  0.45702418  0.57937727  0.05749935    -0.04400
N376        N  0.44853261  0.59520579  0.08824340    -0.56600
N377        N  0.48359237  0.57875497  0.44225981    -0.04100
N378        N  0.49362639  0.59671461  0.39785975    -0.58700
N379        N  0.45424320  0.57850632  0.45762262    -0.03700
N380        N  0.44381976  0.59640295  0.42393952    -0.56500
N381        N  0.48637285  0.58012749  0.04172701    -0.03400
N382        N  0.49843723  0.59652636  0.06125558    -0.59000
C383        C  0.47462853  0.60570140  0.09036390     0.97700
C384        C  0.46859742  0.60750251  0.38657615     0.97500
N385        N  0.03177831  0.00006732  0.45757406    -0.04600
N386        N  0.04972200  0.98965498  0.42393440    -0.57100
N387        N  0.03403484  0.53190276  0.04162206    -0.02700
N388        N  0.05081820  0.54370233  0.06085129    -0.58400
N389        N  0.03302217  0.00247481  0.05736133    -0.04700
N390        N  0.04911151  0.99366932  0.08764405    -0.57400
N391        N  0.03222304  0.52950975  0.44227177    -0.02400
N392        N  0.05033448  0.53959790  0.39805167    -0.58500
Mn393      Mn  0.00965057  0.55568471  0.99105893     1.18400
C394        C  0.06105353  0.51454248  0.38670559     0.99800
C395        C  0.06001941  0.51965499  0.08964119     1.00500
N396        N  0.40326466  0.52649035  0.50821799    -0.04700
N397        N  0.38688331  0.53538261  0.47838749    -0.61000
N398        N  0.40390026  0.49969385  0.12334091    -0.03500
N399        N  0.38557664  0.98993006  0.16747402    -0.61700
N400        N  0.40456452  0.52913908  0.10769496    -0.04200
N401        N  0.38668180  0.53987376  0.14091176    -0.61200
N402        N  0.40201150  0.49703338  0.52419578    -0.03100
N403        N  0.38462421  0.98531886  0.50574606    -0.61900
Mn404      Mn  0.42916505  0.55402998  0.03271017     1.10700
C405        C  0.37546598  0.50945459  0.47702493     1.01000
C406        C  0.37505649  0.51521031  0.17830268     1.01100
N407        N  0.48215428  0.95035694  0.10809409    -0.04200
N408        N  0.49265623  0.93203093  0.14130611    -0.59600
N409        N  0.45003676  0.94842080  0.52439100    -0.03500
N410        N  0.43828787  0.93115606  0.50575329    -0.56300
N411        N  0.47941297  0.94943456  0.50868319    -0.04800
N412        N  0.48822714  0.93299985  0.47899476    -0.59100
N413        N  0.45278666  0.95008059  0.12368600    -0.03800
N414        N  0.44286443  0.93166320  0.16781422    -0.56300
Mn415      Mn  0.00720190  0.97497479  0.03291334     1.20200
Mn416      Mn  0.42654808  0.97318527  0.07483183     1.10100
Cl417      Cl  0.46812262  0.51444808  0.03287254    -0.84300
C418        C  0.46795773  0.92061814  0.17864972     0.98000
C419        C  0.46236471  0.92181865  0.47728207     0.97800
C420        C  0.48522330  0.87435276  0.39195907     0.25300
C421        C  0.46045155  0.85386006  0.40853553    -0.22800
C422        C  0.43539181  0.85717547  0.44504583     0.20200
C423        C  0.43543443  0.88004800  0.46615842     0.25200
C424        C  0.46087916  0.89970126  0.45153811    -0.22800
C425        C  0.48554636  0.89702352  0.41351842     0.20100
F426        F  0.01030278  0.91585799  0.39797971    -0.12700
F427        F  0.50984283  0.87121040  0.35714856    -0.15100
F428        F  0.41124800  0.88174560  0.50276892    -0.15100
F429        F  0.41124609  0.83745912  0.46144212    -0.12700
C430        C  0.49118335  0.85330457  0.26508687     0.25300
C431        C  0.46675604  0.84844146  0.30674732    -0.22800
C432        C  0.44293481  0.86749101  0.30617945     0.20200
C433        C  0.44340665  0.89090449  0.26476392     0.25200
C434        C  0.46788644  0.89599099  0.22290647    -0.22800
C435        C  0.49184944  0.87688253  0.22364689     0.20100
F436        F  0.01564795  0.88046905  0.18393804    -0.12700
F437        F  0.51457310  0.83534794  0.26477505    -0.15100
F438        F  0.41989638  0.90874130  0.26584410    -0.15100
F439        F  0.41869387  0.86278081  0.34544602    -0.12700
C440        C  0.99509006  0.66106395  0.25975294     0.25300
C441        C  0.47107752  0.67976201  0.25832968    -0.22800
C442        C  0.44574861  0.67412245  0.29870130     0.20200
C443        C  0.44448791  0.65022497  0.33997995     0.25200
C444        C  0.46889348  0.63183197  0.34197242    -0.22800
C445        C  0.99413951  0.63750075  0.30114471     0.20100
F446        F  0.01794837  0.62011352  0.30103525    -0.12700
F447        F  0.01990751  0.66624132  0.22132838    -0.15100
F448        F  0.41959939  0.64555241  0.37824110    -0.15100
F449        F  0.42204307  0.69155338  0.29777212    -0.12700
C450        C  0.45379651  0.65339629  0.17548514     0.24700
C451        C  0.47818382  0.67453435  0.15658412    -0.22800
C452        C  0.50254333  0.67133694  0.11891824     0.20200
C453        C  0.50200472  0.64812454  0.09872878     0.25200
C454        C  0.47678561  0.62793948  0.11552861    -0.22800
C455        C  0.45304264  0.63027457  0.15498756     0.20100
F456        F  0.42881133  0.61059029  0.17304907    -0.12700
F457        F  0.42986667  0.65628764  0.21158736    -0.15100
F458        F  0.02543587  0.64658803  0.06090476    -0.15100
F459        F  0.02648394  0.69141240  0.10059000    -0.12700
C460        C  0.49041587  0.74270455  0.27553459     0.25300
C461        C  0.46910736  0.74803350  0.25011445    -0.22800
C462        C  0.44802327  0.76960502  0.25744765     0.20200
C463        C  0.44785550  0.78520096  0.29042635     0.25200
C464        C  0.46931227  0.78003776  0.31556216    -0.22800
C465        C  0.49051120  0.75860258  0.30800503     0.20100
F466        F  0.01169082  0.75346846  0.33153719    -0.12700
F467        F  0.01200812  0.72319479  0.26733360    -0.15100
F468        F  0.42601623  0.80439608  0.29914441    -0.15100
F469        F  0.42735118  0.77532118  0.23294732    -0.12700
C470        C  0.32924411  0.53097583  0.38960173     0.25300
C471        C  0.30723588  0.50733494  0.40878548    -0.22800
C472        C  0.30890794  0.48343625  0.44842068     0.20200
C473        C  0.33174590  0.48353790  0.46956331     0.25200
C474        C  0.35307653  0.50786935  0.45182938    -0.22800
C475        C  0.35194372  0.53131292  0.41107551     0.20100
F476        F  0.37245753  0.55488476  0.39256666    -0.12700
F477        F  0.32758360  0.55475787  0.35225748    -0.15100
F478        F  0.33185072  0.96066737  0.50911205    -0.15100
F479        F  0.28768226  0.96046138  0.46777132    -0.12700
C480        C  0.34280099  0.48938606  0.26231187     0.25300
C481        C  0.35070281  0.51541042  0.22258562    -0.22800
C482        C  0.33461970  0.54125480  0.22547277     0.20200
C483        C  0.31093778  0.54074590  0.26653732     0.25200
C484        C  0.30319538  0.51471796  0.30580873    -0.22800
C485        C  0.31954858  0.48921253  0.30360278     0.20100
F486        F  0.31223640  0.96374527  0.34102651    -0.12700
F487        F  0.35754540  0.96396855  0.26136238    -0.15100
F488        F  0.29578369  0.56583527  0.26843253    -0.15100
F489        F  0.34134662  0.56691538  0.18833054    -0.12700
C490        C  0.09192761  0.54069747  0.30202916     0.25300
C491        C  0.08566099  0.51499494  0.34233472    -0.22800
C492        C  0.10373980  0.99035864  0.34002216     0.20200
C493        C  0.12773961  0.99173708  0.29881014     0.25200
C494        C  0.13382713  0.51748567  0.25889533    -0.22800
C495        C  0.11559539  0.54179666  0.26082558     0.20100
F496        F  0.12124544  0.56700580  0.22289926    -0.12700
F497        F  0.07499568  0.56483414  0.30216880    -0.15100
F498        F  0.14475488  0.96775181  0.29749309    -0.15100
F499        F  0.09860020  0.96510891  0.37787817    -0.12700
C500        C  0.12170507  0.54947225  0.12500224     0.25300
C501        C  0.12749535  0.52383176  0.15819687    -0.22800
C502        C  0.10947240  0.99745153  0.17208293     0.20200
C503        C  0.08689545  0.99621426  0.15076607     0.25200
C504        C  0.08186312  0.52156257  0.11568716    -0.22800
C505        C  0.09891995  0.54850542  0.10419200     0.20100
F506        F  0.09478799  0.57355260  0.07086135    -0.12700
F507        F  0.13901073  0.57518026  0.11130818    -0.15100
F508        F  0.07063985  0.96996393  0.16343223    -0.15100
F509        F  0.11509727  0.97233421  0.20375900    -0.12700
C510        C  0.19823446  0.53978799  0.27140527     0.25300
C511        C  0.20249067  0.51753466  0.24787131    -0.22800
C512        C  0.22386055  0.99628813  0.25541042     0.20200
C513        C  0.24003046  0.99660665  0.28741841     0.25200
C514        C  0.23557029  0.51866919  0.31144060    -0.22800
C515        C  0.21464689  0.54033415  0.30301105     0.20100
F516        F  0.21024217  0.56214128  0.32531699    -0.12700
F517        F  0.17910022  0.56166090  0.26236317    -0.15100
F518        F  0.25882635  0.97445581  0.29670102    -0.15100
F519        F  0.22870122  0.97490526  0.23223077    -0.12700
N520        N  0.15798604  0.01895284  0.71589608    -0.01800
C521        C  0.18783120  0.51867719  0.71061853     0.00800
C522        C  0.20381828  0.52257181  0.66310997    -0.22100
C523        C  0.18325433  0.52557218  0.63799096    -0.22300
C524        C  0.15547169  0.02322515  0.67115314     0.00700
H525        H  0.22795273  0.52393762  0.64813209     0.14500
H526        H  0.18796826  0.52897535  0.59978197     0.14500
N527        N  0.27857094  0.51402793  0.84776542    -0.01800
C528        C  0.24917572  0.51673748  0.85032428     0.00800
C529        C  0.23226046  0.51441228  0.89687113    -0.22100
C530        C  0.25174985  0.50990212  0.92410247    -0.22300
C531        C  0.27994689  0.50977396  0.89319715     0.00700
H532        H  0.20815912  0.51512790  0.90987304     0.14500
H533        H  0.24605185  0.50730403  0.96220982     0.14500
N534        N  0.47244461  0.70426874  0.71572995    -0.01800
C535        C  0.47086829  0.73397502  0.71182452     0.00800
C536        C  0.47379059  0.75048435  0.66479701    -0.22100
C537        C  0.47748713  0.73039291  0.63865691    -0.22300
C538        C  0.47653766  0.70230438  0.67070478     0.00700
H539        H  0.47396369  0.77467576  0.65078349     0.14500
H540        H  0.48031679  0.73562547  0.60051880     0.14500
N541        N  0.46591187  0.82407985  0.84940274    -0.01800
C542        C  0.46786029  0.79435501  0.85345855     0.00800
C543        C  0.46588723  0.77803825  0.90024219    -0.22100
C544        C  0.46239434  0.79822166  0.92614831    -0.22300
C545        C  0.46248454  0.82616342  0.89423149     0.00700
H546        H  0.46621858  0.75389860  0.91427567     0.14500
H547        H  0.46018633  0.79315473  0.96407132     0.14500
N548        N  0.45702417  0.57937727  0.55749934    -0.04400
N549        N  0.44853259  0.59520576  0.58824345    -0.56600
N550        N  0.48359241  0.57875495  0.94225980    -0.04100
N551        N  0.49362641  0.59671457  0.89785973    -0.58700
N552        N  0.45424322  0.57850633  0.95762263    -0.03700
N553        N  0.44381979  0.59640296  0.92393953    -0.56500
N554        N  0.48637282  0.58012748  0.54172701    -0.03400
N555        N  0.49843721  0.59652633  0.56125565    -0.59000
C556        C  0.47462851  0.60570134  0.59036397     0.97700
C557        C  0.46859745  0.60750251  0.88657612     0.97500
N558        N  0.03177831  0.00006734  0.95757410    -0.04600
N559        N  0.04972199  0.98965497  0.92393441    -0.57100
N560        N  0.03403483  0.53190274  0.54162201    -0.02700
N561        N  0.05081822  0.54370229  0.56085123    -0.58400
N562        N  0.03302214  0.00247484  0.55736132    -0.04700
N563        N  0.04911146  0.99366938  0.58764408    -0.57400
N564        N  0.03222306  0.52950974  0.94227183    -0.02400
N565        N  0.05033448  0.53959790  0.89805173    -0.58500
Mn566      Mn  0.00965055  0.55568472  0.49105890     1.18400
C567        C  0.06105351  0.51454249  0.88670560     0.99800
C568        C  0.06001939  0.51965495  0.58964116     1.00500
N569        N  0.40326468  0.52649034  0.00821802    -0.04700
N570        N  0.38688328  0.53538262  0.97838756    -0.61000
N571        N  0.40390024  0.49969386  0.62334092    -0.03500
N572        N  0.38557663  0.98993004  0.66747405    -0.61700
N573        N  0.40456451  0.52913911  0.60769498    -0.04200
N574        N  0.38668184  0.53987380  0.64091177    -0.61200
N575        N  0.40201155  0.49703338  0.02419574    -0.03100
N576        N  0.38462428  0.98531886  0.00574602    -0.61900
Mn577      Mn  0.42916503  0.55402999  0.53271016     1.10700
C578        C  0.37546600  0.50945459  0.97702495     1.01000
C579        C  0.37505652  0.51521035  0.67830272     1.01100
N580        N  0.48215426  0.95035696  0.60809408    -0.04200
N581        N  0.49265619  0.93203095  0.64130609    -0.59600
N582        N  0.45003679  0.94842083  0.02439095    -0.03500
N583        N  0.43828789  0.93115611  0.00575320    -0.56300
N584        N  0.47941300  0.94943457  0.00868317    -0.04800
N585        N  0.48822717  0.93299987  0.97899473    -0.59100
N586        N  0.45278661  0.95008061  0.62368603    -0.03800
N587        N  0.44286441  0.93166323  0.66781421    -0.56300
Mn588      Mn  0.00720188  0.97497481  0.53291333     1.20200
Mn589      Mn  0.42654804  0.97318526  0.57483185     1.10100
Cl590      Cl  0.46812260  0.51444809  0.53287252    -0.84300
C591        C  0.46795771  0.92061815  0.67864972     0.98000
C592        C  0.46236473  0.92181869  0.97728200     0.97800
C593        C  0.48522337  0.87435273  0.89195911     0.25300
C594        C  0.46045162  0.85386003  0.90853554    -0.22800
C595        C  0.43539186  0.85717545  0.94504582     0.20200
C596        C  0.43543445  0.88004802  0.96615835     0.25200
C597        C  0.46087919  0.89970127  0.95153807    -0.22800
C598        C  0.48554642  0.89702349  0.91351845     0.20100
F599        F  0.01030282  0.91585796  0.89797978    -0.12700
F600        F  0.50984289  0.87121037  0.85714858    -0.15100
F601        F  0.41124799  0.88174568  0.00276874    -0.15100
F602        F  0.41124616  0.83745908  0.96144216    -0.12700
C603        C  0.49118337  0.85330460  0.76508685     0.25300
C604        C  0.46675604  0.84844146  0.80674730    -0.22800
C605        C  0.44293478  0.86749097  0.80617940     0.20200
C606        C  0.44340662  0.89090445  0.76476387     0.25200
C607        C  0.46788642  0.89599098  0.72290644    -0.22800
C608        C  0.49184944  0.87688254  0.72364686     0.20100
F609        F  0.01564796  0.88046908  0.68393798    -0.12700
F610        F  0.51457315  0.83534803  0.76477504    -0.15100
F611        F  0.41989631  0.90874121  0.76584400    -0.15100
F612        F  0.41869382  0.86278074  0.84544594    -0.12700
C613        C  0.99509006  0.66106396  0.75975284     0.25300
C614        C  0.47107749  0.67976201  0.75832963    -0.22800
C615        C  0.44574861  0.67412246  0.79870129     0.20200
C616        C  0.44448792  0.65022497  0.83997993     0.25200
C617        C  0.46889350  0.63183198  0.84197238    -0.22800
C618        C  0.99413954  0.63750075  0.80114462     0.20100
F619        F  0.01794841  0.62011353  0.80103510    -0.12700
F620        F  0.01990750  0.66624136  0.72132827    -0.15100
F621        F  0.41959939  0.64555237  0.87824106    -0.15100
F622        F  0.42204310  0.69155344  0.79777216    -0.12700
C623        C  0.45379651  0.65339636  0.67548506     0.24700
C624        C  0.47818384  0.67453440  0.65658399    -0.22800
C625        C  0.50254331  0.67133699  0.61891808     0.20200
C626        C  0.50200470  0.64812453  0.59872873     0.25200
C627        C  0.47678558  0.62793949  0.61552859    -0.22800
C628        C  0.45304260  0.63027464  0.65498749     0.20100
F629        F  0.42881127  0.61059038  0.67304904    -0.12700
F630        F  0.42986673  0.65628769  0.71158737    -0.15100
F631        F  0.02543591  0.64658794  0.56090489    -0.15100
F632        F  0.02648396  0.69141241  0.60058992    -0.12700
C633        C  0.49041576  0.74270449  0.77553465     0.25300
C634        C  0.46910726  0.74803346  0.75011449    -0.22800
C635        C  0.44802320  0.76960501  0.75744764     0.20200
C636        C  0.44785541  0.78520091  0.79042640     0.25200
C637        C  0.46931220  0.78003773  0.81556217    -0.22800
C638        C  0.49051114  0.75860255  0.80800502     0.20100
F639        F  0.01169081  0.75346848  0.83153708    -0.12700
F640        F  0.01200800  0.72319471  0.76733368    -0.15100
F641        F  0.42601612  0.80439602  0.79914449    -0.15100
F642        F  0.42735123  0.77532131  0.73294709    -0.12700
C643        C  0.32924415  0.53097587  0.88960171     0.25300
C644        C  0.30723592  0.50733499  0.90878544    -0.22800
C645        C  0.30890798  0.48343627  0.94842061     0.20200
C646        C  0.33174593  0.48353791  0.96956328     0.25200
C647        C  0.35307657  0.50786935  0.95182935    -0.22800
C648        C  0.35194379  0.53131291  0.91107546     0.20100
F649        F  0.37245767  0.55488470  0.89256653    -0.12700
F650        F  0.32758361  0.55475796  0.85225755    -0.15100
F651        F  0.33185073  0.96066739  0.00911210    -0.15100
F652        F  0.28768226  0.96046143  0.96777139    -0.12700
C653        C  0.34280102  0.48938611  0.76231190     0.25300
C654        C  0.35070284  0.51541047  0.72258564    -0.22800
C655        C  0.33461972  0.54125484  0.72547278     0.20200
C656        C  0.31093776  0.54074594  0.76653729     0.25200
C657        C  0.30319536  0.51471799  0.80580872    -0.22800
C658        C  0.31954859  0.48921258  0.80360278     0.20100
F659        F  0.31223636  0.96374525  0.84102651    -0.12700
F660        F  0.35754538  0.96396852  0.76136241    -0.15100
F661        F  0.29578364  0.56583529  0.76843244    -0.15100
F662        F  0.34134668  0.56691544  0.68833056    -0.12700
C663        C  0.09192758  0.54069748  0.80202913     0.25300
C664        C  0.08566097  0.51499496  0.84233472    -0.22800
C665        C  0.10373976  0.99035860  0.84002216     0.20200
C666        C  0.12773956  0.99173704  0.79881012     0.25200
C667        C  0.13382711  0.51748566  0.75889532    -0.22800
C668        C  0.11559538  0.54179665  0.76082555     0.20100
F669        F  0.12124546  0.56700579  0.72289925    -0.12700
F670        F  0.07499563  0.56483414  0.80216875    -0.15100
F671        F  0.14475482  0.96775176  0.79749308    -0.15100
F672        F  0.09860013  0.96510886  0.87787815    -0.12700
C673        C  0.12170507  0.54947219  0.62500216     0.25300
C674        C  0.12749537  0.52383171  0.65819678    -0.22800
C675        C  0.10947241  0.99745163  0.67208285     0.20200
C676        C  0.08689544  0.99621436  0.65076604     0.25200
C677        C  0.08186310  0.52156250  0.61568713    -0.22800
C678        C  0.09891992  0.54850536  0.60419198     0.20100
F679        F  0.09478790  0.57355256  0.57086141    -0.12700
F680        F  0.13901073  0.57518021  0.61130804    -0.15100
F681        F  0.07063983  0.96996402  0.66343224    -0.15100
F682        F  0.11509729  0.97233431  0.70375890    -0.12700
C683        C  0.19823444  0.53978796  0.77140530     0.25300
C684        C  0.20249066  0.51753464  0.74787131    -0.22800
C685        C  0.22386048  0.99628813  0.75541051     0.20200
C686        C  0.24003043  0.99660666  0.78741844     0.25200
C687        C  0.23557024  0.51866912  0.81144069    -0.22800
C688        C  0.21464683  0.54033408  0.80301116     0.20100
F689        F  0.21024208  0.56214118  0.82531714    -0.12700
F690        F  0.17910023  0.56166090  0.76236316    -0.15100
F691        F  0.25882639  0.97445587  0.79670092    -0.15100
F692        F  0.22870110  0.97490523  0.73223091    -0.12700
N693        N  0.65798606  0.51895283  0.21589610    -0.01800
C694        C  0.68783120  0.01867719  0.21061855     0.00800
C695        C  0.70381823  0.02257183  0.16311000    -0.22100
C696        C  0.68325428  0.02557220  0.13799108    -0.22300
C697        C  0.65547169  0.52322511  0.17115317     0.00700
H698        H  0.72795280  0.02393766  0.14813201     0.14500
H699        H  0.68796822  0.02897542  0.09978169     0.14500
N700        N  0.77857093  0.01402792  0.34776543    -0.01800
C701        C  0.74917573  0.01673752  0.35032422     0.00800
C702        C  0.73226044  0.01441234  0.39687104    -0.22100
C703        C  0.75174979  0.00990213  0.42410247    -0.22300
C704        C  0.77994684  0.00977393  0.39319717     0.00700
H705        H  0.70815910  0.01512800  0.40987292     0.14500
H706        H  0.74605178  0.00730406  0.46220968     0.14500
N707        N  0.97244463  0.20426875  0.21572999    -0.01800
C708        C  0.97086831  0.23397503  0.21182454     0.00800
C709        C  0.97379054  0.25048433  0.16479704    -0.22100
C710        C  0.97748704  0.23039288  0.13865703    -0.22300
C711        C  0.97653764  0.20230437  0.17070482     0.00700
H712        H  0.97396359  0.27467581  0.15078349     0.14500
H713        H  0.98031668  0.23562548  0.10051850     0.14500
N714        N  0.96591186  0.32407986  0.34940279    -0.01800
C715        C  0.96786030  0.29435502  0.35345859     0.00800
C716        C  0.96588723  0.27803828  0.40024222    -0.22100
C717        C  0.96239429  0.29822168  0.42614843    -0.22300
C718        C  0.96248448  0.32616344  0.39423152     0.00700
H719        H  0.96621862  0.25389855  0.41427575     0.14500
H720        H  0.96018629  0.29315481  0.46407107     0.14500
N721        N  0.95702415  0.07937730  0.05749935    -0.04400
N722        N  0.94853258  0.09520584  0.08824337    -0.56600
N723        N  0.98359236  0.07875496  0.44225979    -0.04100
N724        N  0.99362635  0.09671458  0.39785973    -0.58700
N725        N  0.95424316  0.07850633  0.45762261    -0.03700
N726        N  0.94381973  0.09640295  0.42393953    -0.56500
N727        N  0.98637283  0.08012749  0.04172705    -0.03400
N728        N  0.99843720  0.09652638  0.06125560    -0.59000
C729        C  0.97462850  0.10570144  0.09036388     0.97700
C730        C  0.96859739  0.10750251  0.38657613     0.97500
N731        N  0.53177831  0.50006734  0.45757406    -0.04600
N732        N  0.54972201  0.48965496  0.42393439    -0.57100
N733        N  0.53403485  0.03190272  0.04162208    -0.02700
N734        N  0.55081823  0.04370226  0.06085131    -0.58400
N735        N  0.53302219  0.50247485  0.05736132    -0.04700
N736        N  0.54911152  0.49366939  0.08764407    -0.57400
N737        N  0.53222303  0.02950978  0.44227177    -0.02400
N738        N  0.55033443  0.03959791  0.39805170    -0.58500
Mn739      Mn  0.50965058  0.05568473  0.99105895     1.18400
C740        C  0.56105349  0.01454251  0.38670555     0.99800
C741        C  0.56001943  0.01965491  0.08964118     1.00500
N742        N  0.90326464  0.02649033  0.50821803    -0.04700
N743        N  0.88688328  0.03538260  0.47838749    -0.61000
N744        N  0.90390024  0.99969389  0.12334091    -0.03500
N745        N  0.88557662  0.48993001  0.16747399    -0.61700
N746        N  0.90456450  0.02913912  0.10769496    -0.04200
N747        N  0.88668180  0.03987381  0.14091176    -0.61200
N748        N  0.90201149  0.99703338  0.52419579    -0.03100
N749        N  0.88462421  0.48531888  0.50574607    -0.61900
Mn750      Mn  0.92916504  0.05403001  0.03271016     1.10700
C751        C  0.87546599  0.00945458  0.47702492     1.01000
C752        C  0.87505650  0.01521037  0.17830270     1.01100
N753        N  0.98215429  0.45035694  0.10809411    -0.04200
N754        N  0.99265622  0.43203094  0.14130612    -0.59600
N755        N  0.95003677  0.44842081  0.52439098    -0.03500
N756        N  0.93828788  0.43115608  0.50575327    -0.56300
N757        N  0.97941299  0.44943455  0.50868318    -0.04800
N758        N  0.98822715  0.43299984  0.47899478    -0.59100
N759        N  0.95278664  0.45008058  0.12368602    -0.03800
N760        N  0.94286443  0.43166319  0.16781421    -0.56300
Mn761      Mn  0.50720192  0.47497479  0.03291335     1.20200
Mn762      Mn  0.92654807  0.47318524  0.07483182     1.10100
Cl763      Cl  0.96812261  0.01444810  0.03287254    -0.84300
C764        C  0.96795773  0.42061813  0.17864974     0.98000
C765        C  0.96236472  0.42181866  0.47728207     0.97800
C766        C  0.98522329  0.37435276  0.39195908     0.25300
C767        C  0.96045155  0.35386005  0.40853556    -0.22800
C768        C  0.93539182  0.35717545  0.44504590     0.20200
C769        C  0.93543443  0.38004801  0.46615843     0.25200
C770        C  0.96087916  0.39970128  0.45153810    -0.22800
C771        C  0.98554635  0.39702353  0.41351841     0.20100
F772        F  0.51030277  0.41585802  0.39797967    -0.12700
F773        F  0.00984283  0.37121036  0.35714861    -0.15100
F774        F  0.91124800  0.38174564  0.50276891    -0.15100
F775        F  0.91124614  0.33745904  0.46144233    -0.12700
C776        C  0.99118338  0.35330459  0.26508689     0.25300
C777        C  0.96675605  0.34844145  0.30674733    -0.22800
C778        C  0.94293480  0.36749097  0.30617943     0.20200
C779        C  0.94340664  0.39090445  0.26476392     0.25200
C780        C  0.96788644  0.39599098  0.22290648    -0.22800
C781        C  0.99184945  0.37688253  0.22364690     0.20100
F782        F  0.51564794  0.38046902  0.18393803    -0.12700
F783        F  0.01457314  0.33534798  0.26477508    -0.15100
F784        F  0.91989634  0.40874122  0.26584408    -0.15100
F785        F  0.91869384  0.36278072  0.34544599    -0.12700
C786        C  0.49509005  0.16106397  0.25975292     0.25300
C787        C  0.97107749  0.17976202  0.25832967    -0.22800
C788        C  0.94574859  0.17412248  0.29870131     0.20200
C789        C  0.94448789  0.15022501  0.33997996     0.25200
C790        C  0.96889346  0.13183199  0.34197242    -0.22800
C791        C  0.49413951  0.13750077  0.30114469     0.20100
F792        F  0.51794839  0.12011357  0.30103524    -0.12700
F793        F  0.51990752  0.16624137  0.22132838    -0.15100
F794        F  0.91959940  0.14555248  0.37824114    -0.15100
F795        F  0.92204307  0.19155343  0.29777213    -0.12700
C796        C  0.95379652  0.15339635  0.17548509     0.24700
C797        C  0.97818384  0.17453438  0.15658407    -0.22800
C798        C  0.00254335  0.17133696  0.11891820     0.20200
C799        C  0.00200472  0.14812455  0.09872876     0.25200
C800        C  0.97678559  0.12793953  0.11552857    -0.22800
C801        C  0.95304261  0.13027465  0.15498749     0.20100
F802        F  0.92881127  0.11059042  0.17304895    -0.12700
F803        F  0.92986669  0.15628771  0.21158731    -0.15100
F804        F  0.52543590  0.14658802  0.06090482    -0.15100
F805        F  0.52648402  0.19141234  0.10059016    -0.12700
C806        C  0.99041584  0.24270454  0.27553462     0.25300
C807        C  0.96910732  0.24803349  0.25011448    -0.22800
C808        C  0.94802324  0.26960502  0.25744765     0.20200
C809        C  0.94785546  0.28520095  0.29042636     0.25200
C810        C  0.96931223  0.28003775  0.31556218    -0.22800
C811        C  0.99051117  0.25860258  0.30800505     0.20100
F812        F  0.51169083  0.25346849  0.33153717    -0.12700
F813        F  0.51200813  0.22319482  0.26733359    -0.15100
F814        F  0.92601619  0.30439607  0.29914442    -0.15100
F815        F  0.92735118  0.27532121  0.23294727    -0.12700
C816        C  0.82924409  0.03097586  0.38960176     0.25300
C817        C  0.80723586  0.00733497  0.40878549    -0.22800
C818        C  0.80890793  0.98343626  0.44842064     0.20200
C819        C  0.83174591  0.98353788  0.46956326     0.25200
C820        C  0.85307654  0.00786933  0.45182935    -0.22800
C821        C  0.85194370  0.03131292  0.41107552     0.20100
F822        F  0.87245751  0.05488478  0.39256670    -0.12700
F823        F  0.82758356  0.05475792  0.35225755    -0.15100
F824        F  0.83185071  0.46066742  0.50911212    -0.15100
F825        F  0.78768226  0.46046141  0.46777138    -0.12700
C826        C  0.84280099  0.98938611  0.26231188     0.25300
C827        C  0.85070281  0.01541048  0.22258563    -0.22800
C828        C  0.83461969  0.04125485  0.22547279     0.20200
C829        C  0.81093776  0.04074595  0.26653734     0.25200
C830        C  0.80319535  0.01471799  0.30580874    -0.22800
C831        C  0.81954855  0.98921257  0.30360276     0.20100
F832        F  0.81223638  0.46374523  0.34102649    -0.12700
F833        F  0.85754537  0.46396850  0.26136238    -0.15100
F834        F  0.79578368  0.06583531  0.26843257    -0.15100
F835        F  0.84134662  0.06691544  0.18833058    -0.12700
C836        C  0.59192760  0.04069752  0.30202915     0.25300
C837        C  0.58566097  0.01499499  0.34233473    -0.22800
C838        C  0.60373976  0.49035858  0.34002211     0.20200
C839        C  0.62773959  0.49173704  0.29881010     0.25200
C840        C  0.63382712  0.01748569  0.25889535    -0.22800
C841        C  0.61559538  0.04179668  0.26082557     0.20100
F842        F  0.62124542  0.06700580  0.22289921    -0.12700
F843        F  0.57499569  0.06483420  0.30216878    -0.15100
F844        F  0.64475486  0.46775176  0.29749303    -0.15100
F845        F  0.59860010  0.46510881  0.37787805    -0.12700
C846        C  0.62170506  0.04947218  0.12500225     0.25300
C847        C  0.62749533  0.02383170  0.15819692    -0.22800
C848        C  0.60947240  0.49745161  0.17208291     0.20200
C849        C  0.58689544  0.49621435  0.15076607     0.25200
C850        C  0.58186314  0.02156247  0.11568715    -0.22800
C851        C  0.59891996  0.04850533  0.10419199     0.20100
F852        F  0.59478800  0.07355250  0.07086131    -0.12700
F853        F  0.63901073  0.07518019  0.11130814    -0.15100
F854        F  0.57063983  0.46996402  0.16343222    -0.15100
F855        F  0.61509725  0.47233428  0.20375899    -0.12700
C856        C  0.69823446  0.03978796  0.27140527     0.25300
C857        C  0.70249068  0.01753464  0.24787130    -0.22800
C858        C  0.72386055  0.49628815  0.25541043     0.20200
C859        C  0.74003047  0.49660668  0.28741839     0.25200
C860        C  0.73557028  0.01866916  0.31144061    -0.22800
C861        C  0.71464688  0.04033412  0.30301106     0.20100
F862        F  0.71024216  0.06214125  0.32531699    -0.12700
F863        F  0.67910020  0.06166086  0.26236320    -0.15100
F864        F  0.75882637  0.47445584  0.29670101    -0.15100
F865        F  0.72870118  0.47490524  0.23223084    -0.12700
N866        N  0.65798605  0.51895281  0.71589608    -0.01800
C867        C  0.68783119  0.01867722  0.71061854     0.00800
C868        C  0.70381828  0.02257188  0.66310997    -0.22100
C869        C  0.68325433  0.02557227  0.63799095    -0.22300
C870        C  0.65547170  0.52322509  0.67115314     0.00700
H871        H  0.72795269  0.02393770  0.64813211     0.14500
H872        H  0.68796824  0.02897546  0.59978201     0.14500
N873        N  0.77857095  0.01402793  0.84776542    -0.01800
C874        C  0.74917574  0.01673753  0.85032425     0.00800
C875        C  0.73226049  0.01441231  0.89687110    -0.22100
C876        C  0.75174985  0.00990208  0.92410249    -0.22300
C877        C  0.77994690  0.00977392  0.89319715     0.00700
H878        H  0.70815910  0.01512794  0.90987304     0.14500
H879        H  0.74605187  0.00730396  0.96220975     0.14500
N880        N  0.97244463  0.20426876  0.71572996    -0.01800
C881        C  0.97086832  0.23397503  0.71182454     0.00800
C882        C  0.97379061  0.25048437  0.66479703    -0.22100
C883        C  0.97748713  0.23039292  0.63865694    -0.22300
C884        C  0.97653765  0.20230439  0.67070480     0.00700
H885        H  0.97396371  0.27467574  0.65078353     0.14500
H886        H  0.98031678  0.23562549  0.60051881     0.14500
N887        N  0.96591187  0.32407989  0.84940273    -0.01800
C888        C  0.96786028  0.29435505  0.85345854     0.00800
C889        C  0.96588723  0.27803828  0.90024219    -0.22100
C890        C  0.96239435  0.29822171  0.92614829    -0.22300
C891        C  0.96248454  0.32616346  0.89423147     0.00700
H892        H  0.96621858  0.25389871  0.91427563     0.14500
H893        H  0.96018635  0.29315477  0.96407132     0.14500
N894        N  0.95702417  0.07937731  0.55749930    -0.04400
N895        N  0.94853260  0.09520583  0.58824335    -0.56600
N896        N  0.98359241  0.07875500  0.94225983    -0.04100
N897        N  0.99362643  0.09671464  0.89785977    -0.58700
N898        N  0.95424322  0.07850635  0.95762263    -0.03700
N899        N  0.94381979  0.09640297  0.92393950    -0.56500
N900        N  0.98637283  0.08012750  0.54172698    -0.03400
N901        N  0.99843723  0.09652636  0.56125555    -0.59000
C902        C  0.97462853  0.10570142  0.59036385     0.97700
C903        C  0.96859746  0.10750253  0.88657614     0.97500
N904        N  0.53177832  0.50006732  0.95757410    -0.04600
N905        N  0.54972200  0.48965495  0.92393440    -0.57100
N906        N  0.53403481  0.03190276  0.54162207    -0.02700
N907        N  0.55081815  0.04370230  0.56085132    -0.58400
N908        N  0.53302214  0.50247482  0.55736133    -0.04700
N909        N  0.54911145  0.49366935  0.58764409    -0.57400
N910        N  0.53222306  0.02950975  0.94227183    -0.02400
N911        N  0.55033449  0.03959792  0.89805172    -0.58500
Mn912      Mn  0.50965054  0.05568472  0.49105891     1.18400
C913        C  0.56105352  0.01454250  0.88670561     0.99800
C914        C  0.56001936  0.01965497  0.58964122     1.00500
N915        N  0.90326466  0.02649035  0.00821801    -0.04700
N916        N  0.88688329  0.03538260  0.97838752    -0.61000
N917        N  0.90390024  0.99969389  0.62334090    -0.03500
N918        N  0.88557664  0.48993005  0.66747404    -0.61700
N919        N  0.90456451  0.02913910  0.60769498    -0.04200
N920        N  0.88668183  0.03987380  0.64091180    -0.61200
N921        N  0.90201153  0.99703338  0.02419576    -0.03100
N922        N  0.88462426  0.48531887  0.00574601    -0.61900
Mn923      Mn  0.92916502  0.05403000  0.53271016     1.10700
C924        C  0.87546601  0.00945457  0.97702492     1.01000
C925        C  0.87505653  0.01521035  0.67830271     1.01100
N926        N  0.98215427  0.45035694  0.60809406    -0.04200
N927        N  0.99265620  0.43203093  0.64130604    -0.59600
N928        N  0.95003680  0.44842080  0.02439097    -0.03500
N929        N  0.93828790  0.43115609  0.00575322    -0.56300
N930        N  0.97941300  0.44943456  0.00868320    -0.04800
N931        N  0.98822717  0.43299987  0.97899472    -0.59100
N932        N  0.95278661  0.45008060  0.62368601    -0.03800
N933        N  0.94286441  0.43166322  0.66781419    -0.56300
Mn934      Mn  0.50720189  0.47497480  0.53291333     1.20200
Mn935      Mn  0.92654805  0.47318526  0.57483184     1.10100
Cl936      Cl  0.96812258  0.01444810  0.53287251    -0.84300
C937        C  0.96795771  0.42061813  0.67864968     0.98000
C938        C  0.96236474  0.42181869  0.97728200     0.97800
C939        C  0.98522337  0.37435274  0.89195909     0.25300
C940        C  0.96045162  0.35386006  0.90853552    -0.22800
C941        C  0.93539187  0.35717546  0.94504582     0.20200
C942        C  0.93543446  0.38004803  0.96615835     0.25200
C943        C  0.96087920  0.39970127  0.95153808    -0.22800
C944        C  0.98554643  0.39702349  0.91351847     0.20100
F945        F  0.51030285  0.41585795  0.89797980    -0.12700
F946        F  0.00984289  0.37121040  0.85714855    -0.15100
F947        F  0.91124799  0.38174569  0.00276873    -0.15100
F948        F  0.91124619  0.33745906  0.96144219    -0.12700
C949        C  0.99118336  0.35330460  0.76508681     0.25300
C950        C  0.96675605  0.34844149  0.80674728    -0.22800
C951        C  0.94293481  0.36749103  0.80617939     0.20200
C952        C  0.94340664  0.39090449  0.76476385     0.25200
C953        C  0.96788643  0.39599099  0.72290641    -0.22800
C954        C  0.99184944  0.37688255  0.72364684     0.20100
F955        F  0.51564798  0.38046911  0.68393802    -0.12700
F956        F  0.01457312  0.33534799  0.76477498    -0.15100
F957        F  0.91989635  0.40874128  0.76584398    -0.15100
F958        F  0.91869386  0.36278083  0.84544594    -0.12700
C959        C  0.49509006  0.16106396  0.75975284     0.25300
C960        C  0.97107751  0.17976202  0.75832964    -0.22800
C961        C  0.94574862  0.17412247  0.79870128     0.20200
C962        C  0.94448793  0.15022498  0.83997992     0.25200
C963        C  0.96889351  0.13183199  0.84197238    -0.22800
C964        C  0.49413954  0.13750077  0.80114463     0.20100
F965        F  0.51794843  0.12011356  0.80103514    -0.12700
F966        F  0.51990748  0.16624133  0.72132825    -0.15100
F967        F  0.91959941  0.14555241  0.87824107    -0.15100
F968        F  0.92204310  0.19155342  0.79777211    -0.12700
C969        C  0.95379653  0.15339634  0.67548508     0.24700
C970        C  0.97818383  0.17453441  0.65658401    -0.22800
C971        C  0.00254331  0.17133702  0.61891809     0.20200
C972        C  0.00200472  0.14812457  0.59872871     0.25200
C973        C  0.97678561  0.12793952  0.61552854    -0.22800
C974        C  0.95304264  0.13027462  0.65498747     0.20100
F975        F  0.92881134  0.11059032  0.67304902    -0.12700
F976        F  0.92986673  0.15628763  0.71158740    -0.15100
F977        F  0.52543591  0.14658799  0.56090484    -0.15100
F978        F  0.52648393  0.19141244  0.60058995    -0.12700
C979        C  0.99041579  0.24270455  0.77553465     0.25300
C980        C  0.96910727  0.24803348  0.75011451    -0.22800
C981        C  0.94802319  0.26960501  0.75744766     0.20200
C982        C  0.94785540  0.28520095  0.79042638     0.25200
C983        C  0.96931219  0.28003778  0.81556216    -0.22800
C984        C  0.99051115  0.25860262  0.80800501     0.20100
F985        F  0.51169081  0.25346857  0.83153706    -0.12700
F986        F  0.51200803  0.22319479  0.76733367    -0.15100
F987        F  0.92601613  0.30439607  0.79914444    -0.15100
F988        F  0.92735120  0.27532126  0.73294716    -0.12700
C989        C  0.82924417  0.03097583  0.88960169     0.25300
C990        C  0.80723593  0.00733495  0.90878544    -0.22800
C991        C  0.80890798  0.98343625  0.94842062     0.20200
C992        C  0.83174595  0.98353787  0.96956325     0.25200
C993        C  0.85307659  0.00786931  0.95182933    -0.22800
C994        C  0.85194379  0.03131288  0.91107546     0.20100
F995        F  0.87245763  0.05488471  0.89256660    -0.12700
F996        F  0.82758364  0.05475791  0.85225750    -0.15100
F997        F  0.83185070  0.46066745  0.00911214    -0.15100
F998        F  0.78768230  0.46046142  0.96777132    -0.12700
C999        C  0.84280101  0.98938608  0.76231189     0.25300
C1000       C  0.85070285  0.01541046  0.72258565    -0.22800
C1001       C  0.83461974  0.04125483  0.72547280     0.20200
C1002       C  0.81093777  0.04074592  0.76653730     0.25200
C1003       C  0.80319537  0.01471798  0.80580872    -0.22800
C1004       C  0.81954858  0.98921256  0.80360277     0.20100
F1005       F  0.81223639  0.46374528  0.84102653    -0.12700
F1006       F  0.85754541  0.46396855  0.76136244    -0.15100
F1007       F  0.79578364  0.06583527  0.76843243    -0.15100
F1008       F  0.84134671  0.06691543  0.68833060    -0.12700
C1009       C  0.59192760  0.04069749  0.80202917     0.25300
C1010       C  0.58566098  0.01499496  0.84233473    -0.22800
C1011       C  0.60373978  0.49035861  0.84002218     0.20200
C1012       C  0.62773959  0.49173705  0.79881015     0.25200
C1013       C  0.63382711  0.01748567  0.75889532    -0.22800
C1014       C  0.61559539  0.04179667  0.76082559     0.20100
F1015       F  0.62124549  0.06700583  0.72289931    -0.12700
F1016       F  0.57499567  0.06483416  0.80216881    -0.15100
F1017       F  0.64475487  0.46775177  0.79749314    -0.15100
F1018       F  0.59860017  0.46510888  0.87787820    -0.12700
C1019       C  0.62170506  0.04947226  0.62500214     0.25300
C1020       C  0.62749536  0.02383178  0.65819678    -0.22800
C1021       C  0.60947243  0.49745156  0.67208282     0.20200
C1022       C  0.58689546  0.49621430  0.65076600     0.25200
C1023       C  0.58186309  0.02156254  0.61568715    -0.22800
C1024       C  0.59891992  0.04850540  0.60419194     0.20100
F1025       F  0.59478793  0.07355257  0.57086128    -0.12700
F1026       F  0.63901071  0.07518028  0.61130802    -0.15100
F1027       F  0.57063986  0.46996395  0.66343219    -0.15100
F1028       F  0.61509732  0.47233424  0.70375886    -0.12700
C1029       C  0.69823443  0.03978798  0.77140531     0.25300
C1030       C  0.70249063  0.01753466  0.74787134    -0.22800
C1031       C  0.72386051  0.49628812  0.75541046     0.20200
C1032       C  0.74003044  0.49660663  0.78741843     0.25200
C1033       C  0.73557024  0.01866916  0.81144068    -0.22800
C1034       C  0.71464683  0.04033412  0.80301115     0.20100
F1035       F  0.71024210  0.06214124  0.82531709    -0.12700
F1036       F  0.67910023  0.06166094  0.76236315    -0.15100
F1037       F  0.75882639  0.47445583  0.79670091    -0.15100
F1038       F  0.72870114  0.47490523  0.73223084    -0.12700
N1039       N  0.65798605  0.01895283  0.21589612    -0.01800
C1040       C  0.68783121  0.51867720  0.21061852     0.00800
C1041       C  0.70381824  0.52257186  0.16310996    -0.22100
C1042       C  0.68325429  0.52557224  0.13799103    -0.22300
C1043       C  0.65547168  0.02322508  0.17115320     0.00700
H1044       H  0.72795283  0.52393770  0.14813195     0.14500
H1045       H  0.68796823  0.52897549  0.09978167     0.14500
N1046       N  0.77857095  0.51402791  0.34776540    -0.01800
C1047       C  0.74917575  0.51673753  0.35032419     0.00800
C1048       C  0.73226046  0.51441230  0.39687103    -0.22100
C1049       C  0.75174981  0.50990206  0.42410244    -0.22300
C1050       C  0.77994687  0.50977389  0.39319714     0.00700
H1051       H  0.70815915  0.51512794  0.40987290     0.14500
H1052       H  0.74605180  0.50730394  0.46220972     0.14500
N1053       N  0.97244465  0.70426874  0.21572999    -0.01800
C1054       C  0.97086835  0.73397503  0.21182452     0.00800
C1055       C  0.97379056  0.75048431  0.16479702    -0.22100
C1056       C  0.97748703  0.73039285  0.13865705    -0.22300
C1057       C  0.97653763  0.70230434  0.17070484     0.00700
H1058       H  0.97396363  0.77467581  0.15078343     0.14500
H1059       H  0.98031665  0.73562545  0.10051848     0.14500
N1060       N  0.96591186  0.82407987  0.34940279    -0.01800
C1061       C  0.96786034  0.79435503  0.35345857     0.00800
C1062       C  0.96588726  0.77803829  0.40024221    -0.22100
C1063       C  0.96239428  0.79822169  0.42614841    -0.22300
C1064       C  0.96248446  0.82616344  0.39423152     0.00700
H1065       H  0.96621865  0.75389858  0.41427574     0.14500
H1066       H  0.96018627  0.79315480  0.46407112     0.14500
N1067       N  0.95702417  0.57937728  0.05749933    -0.04400
N1068       N  0.94853259  0.59520581  0.08824340    -0.56600
N1069       N  0.98359236  0.57875498  0.44225981    -0.04100
N1070       N  0.99362636  0.59671461  0.39785976    -0.58700
N1071       N  0.95424317  0.57850632  0.45762263    -0.03700
N1072       N  0.94381973  0.59640294  0.42393953    -0.56500
N1073       N  0.98637282  0.58012748  0.04172702    -0.03400
N1074       N  0.99843722  0.59652636  0.06125559    -0.59000
C1075       C  0.97462852  0.60570139  0.09036389     0.97700
C1076       C  0.96859738  0.60750251  0.38657615     0.97500
N1077       N  0.53177831  0.00006732  0.45757406    -0.04600
N1078       N  0.54972197  0.98965498  0.42393439    -0.57100
N1079       N  0.53403485  0.53190276  0.04162205    -0.02700
N1080       N  0.55081821  0.54370233  0.06085129    -0.58400
N1081       N  0.53302218  0.00247481  0.05736132    -0.04700
N1082       N  0.54911152  0.99366932  0.08764405    -0.57400
N1083       N  0.53222304  0.52950975  0.44227178    -0.02400
N1084       N  0.55033448  0.53959791  0.39805167    -0.58500
Mn1085     Mn  0.50965058  0.55568471  0.99105893     1.18400
C1086       C  0.56105352  0.51454249  0.38670559     0.99800
C1087       C  0.56001941  0.51965499  0.08964119     1.00500
N1088       N  0.90326466  0.52649035  0.50821800    -0.04700
N1089       N  0.88688331  0.53538261  0.47838749    -0.61000
N1090       N  0.90390024  0.49969384  0.12334090    -0.03500
N1091       N  0.88557663  0.98993006  0.16747403    -0.61700
N1092       N  0.90456451  0.52913909  0.10769495    -0.04200
N1093       N  0.88668180  0.53987376  0.14091173    -0.61200
N1094       N  0.90201150  0.49703338  0.52419578    -0.03100
N1095       N  0.88462421  0.98531887  0.50574606    -0.61900
Mn1096     Mn  0.92916504  0.55402998  0.03271016     1.10700
C1097       C  0.87546599  0.50945459  0.47702493     1.01000
C1098       C  0.87505648  0.51521032  0.17830266     1.01100
N1099       N  0.98215427  0.95035694  0.10809409    -0.04200
N1100       N  0.99265622  0.93203093  0.14130611    -0.59600
N1101       N  0.95003676  0.94842080  0.52439100    -0.03500
N1102       N  0.93828787  0.93115607  0.50575329    -0.56300
N1103       N  0.97941298  0.94943456  0.50868318    -0.04800
N1104       N  0.98822714  0.93299986  0.47899476    -0.59100
N1105       N  0.95278664  0.95008058  0.12368600    -0.03800
N1106       N  0.94286442  0.93166319  0.16781422    -0.56300
Mn1107     Mn  0.50720191  0.97497480  0.03291334     1.20200
Mn1108     Mn  0.92654806  0.97318527  0.07483183     1.10100
Cl1109     Cl  0.96812261  0.51444808  0.03287253    -0.84300
C1110       C  0.96795773  0.92061814  0.17864972     0.98000
C1111       C  0.96236471  0.92181866  0.47728207     0.97800
C1112       C  0.98522329  0.87435276  0.39195908     0.25300
C1113       C  0.96045154  0.85386006  0.40853556    -0.22800
C1114       C  0.93539181  0.85717546  0.44504589     0.20200
C1115       C  0.93543443  0.88004800  0.46615845     0.25200
C1116       C  0.96087916  0.89970127  0.45153811    -0.22800
C1117       C  0.98554635  0.89702352  0.41351842     0.20100
F1118       F  0.51030278  0.91585800  0.39797971    -0.12700
F1119       F  0.00984281  0.87121039  0.35714857    -0.15100
F1120       F  0.91124801  0.88174561  0.50276895    -0.15100
F1121       F  0.91124612  0.83745907  0.46144229    -0.12700
C1122       C  0.99118335  0.85330457  0.26508687     0.25300
C1123       C  0.96675604  0.84844147  0.30674732    -0.22800
C1124       C  0.94293481  0.86749101  0.30617945     0.20200
C1125       C  0.94340665  0.89090449  0.26476393     0.25200
C1126       C  0.96788644  0.89599099  0.22290647    -0.22800
C1127       C  0.99184944  0.87688253  0.22364689     0.20100
F1128       F  0.51564795  0.88046905  0.18393805    -0.12700
F1129       F  0.01457310  0.83534794  0.26477504    -0.15100
F1130       F  0.91989638  0.90874130  0.26584410    -0.15100
F1131       F  0.91869387  0.86278081  0.34544602    -0.12700
C1132       C  0.49509007  0.66106395  0.25975292     0.25300
C1133       C  0.97107751  0.67976202  0.25832968    -0.22800
C1134       C  0.94574859  0.67412246  0.29870129     0.20200
C1135       C  0.94448787  0.65022497  0.33997993     0.25200
C1136       C  0.96889345  0.63183197  0.34197242    -0.22800
C1137       C  0.49413953  0.63750075  0.30114469     0.20100
F1138       F  0.51794839  0.62011352  0.30103522    -0.12700
F1139       F  0.51990752  0.66624133  0.22132836    -0.15100
F1140       F  0.91959933  0.64555238  0.37824104    -0.15100
F1141       F  0.92204307  0.69155339  0.29777209    -0.12700
C1142       C  0.95379653  0.65339629  0.17548514     0.24700
C1143       C  0.97818384  0.67453435  0.15658410    -0.22800
C1144       C  0.00254333  0.67133696  0.11891818     0.20200
C1145       C  0.00200472  0.64812453  0.09872875     0.25200
C1146       C  0.97678561  0.62793947  0.11552861    -0.22800
C1147       C  0.95304265  0.63027457  0.15498756     0.20100
F1148       F  0.92881134  0.61059030  0.17304908    -0.12700
F1149       F  0.92986670  0.65628764  0.21158735    -0.15100
F1150       F  0.52543588  0.64658805  0.06090478    -0.15100
F1151       F  0.52648397  0.69141235  0.10059017    -0.12700
C1152       C  0.99041587  0.74270455  0.27553459     0.25300
C1153       C  0.96910736  0.74803350  0.25011445    -0.22800
C1154       C  0.94802327  0.76960502  0.25744765     0.20200
C1155       C  0.94785550  0.78520096  0.29042635     0.25200
C1156       C  0.96931227  0.78003776  0.31556216    -0.22800
C1157       C  0.99051121  0.75860258  0.30800503     0.20100
F1158       F  0.51169082  0.75346846  0.33153719    -0.12700
F1159       F  0.51200812  0.72319479  0.26733360    -0.15100
F1160       F  0.92601623  0.80439608  0.29914441    -0.15100
F1161       F  0.92735118  0.77532118  0.23294732    -0.12700
C1162       C  0.82924412  0.53097583  0.38960171     0.25300
C1163       C  0.80723589  0.50733494  0.40878545    -0.22800
C1164       C  0.80890794  0.48343626  0.44842066     0.20200
C1165       C  0.83174590  0.48353790  0.46956330     0.25200
C1166       C  0.85307654  0.50786935  0.45182938    -0.22800
C1167       C  0.85194372  0.53131292  0.41107550     0.20100
F1168       F  0.87245753  0.55488477  0.39256666    -0.12700
F1169       F  0.82758360  0.55475788  0.35225747    -0.15100
F1170       F  0.83185074  0.96066737  0.50911204    -0.15100
F1171       F  0.78768226  0.96046140  0.46777132    -0.12700
C1172       C  0.84280100  0.48938606  0.26231186     0.25300
C1173       C  0.85070281  0.51541043  0.22258560    -0.22800
C1174       C  0.83461970  0.54125480  0.22547276     0.20200
C1175       C  0.81093777  0.54074591  0.26653730     0.25200
C1176       C  0.80319537  0.51471796  0.30580871    -0.22800
C1177       C  0.81954858  0.48921254  0.30360276     0.20100
F1178       F  0.81223629  0.96374524  0.34102646    -0.12700
F1179       F  0.85754537  0.96396855  0.26136241    -0.15100
F1180       F  0.79578369  0.56583527  0.26843251    -0.15100
F1181       F  0.84134663  0.56691539  0.18833053    -0.12700
C1182       C  0.59192761  0.54069749  0.30202916     0.25300
C1183       C  0.58566098  0.51499495  0.34233472    -0.22800
C1184       C  0.60373979  0.99035864  0.34002216     0.20200
C1185       C  0.62773960  0.99173709  0.29881015     0.25200
C1186       C  0.63382713  0.51748567  0.25889534    -0.22800
C1187       C  0.61559540  0.54179666  0.26082558     0.20100
F1188       F  0.62124544  0.56700579  0.22289926    -0.12700
F1189       F  0.57499569  0.56483415  0.30216880    -0.15100
F1190       F  0.64475488  0.96775181  0.29749310    -0.15100
F1191       F  0.59860019  0.96510891  0.37787818    -0.12700
C1192       C  0.62170506  0.54947225  0.12500225     0.25300
C1193       C  0.62749534  0.52383176  0.15819689    -0.22800
C1194       C  0.60947241  0.99745153  0.17208293     0.20200
C1195       C  0.58689546  0.99621426  0.15076607     0.25200
C1196       C  0.58186312  0.52156257  0.11568716    -0.22800
C1197       C  0.59891995  0.54850542  0.10419200     0.20100
F1198       F  0.59478799  0.57355260  0.07086134    -0.12700
F1199       F  0.63901073  0.57518026  0.11130818    -0.15100
F1200       F  0.57063985  0.96996393  0.16343223    -0.15100
F1201       F  0.61509727  0.97233421  0.20375900    -0.12700
C1202       C  0.69823448  0.53978800  0.27140521     0.25300
C1203       C  0.70249068  0.51753467  0.24787127    -0.22800
C1204       C  0.72386056  0.99628813  0.25541042     0.20200
C1205       C  0.74003047  0.99660665  0.28741841     0.25200
C1206       C  0.73557029  0.51866919  0.31144058    -0.22800
C1207       C  0.71464690  0.54033416  0.30301101     0.20100
F1208       F  0.71024217  0.56214129  0.32531696    -0.12700
F1209       F  0.67910024  0.56166092  0.26236310    -0.15100
F1210       F  0.75882636  0.97445580  0.29670103    -0.15100
F1211       F  0.72870122  0.97490525  0.23223078    -0.12700
N1212       N  0.65798605  0.01895285  0.71589606    -0.01800
C1213       C  0.68783119  0.51867718  0.71061855     0.00800
C1214       C  0.70381827  0.52257181  0.66310999    -0.22100
C1215       C  0.68325432  0.52557219  0.63799098    -0.22300
C1216       C  0.65547170  0.02322514  0.67115312     0.00700
H1217       H  0.72795270  0.52393761  0.64813212     0.14500
H1218       H  0.68796825  0.52897538  0.59978196     0.14500
N1219       N  0.77857094  0.51402793  0.84776542    -0.01800
C1220       C  0.74917573  0.51673748  0.85032427     0.00800
C1221       C  0.73226047  0.51441228  0.89687112    -0.22100
C1222       C  0.75174985  0.50990212  0.92410247    -0.22300
C1223       C  0.77994689  0.50977396  0.89319715     0.00700
H1224       H  0.70815912  0.51512790  0.90987304     0.14500
H1225       H  0.74605185  0.50730403  0.96220982     0.14500
N1226       N  0.97244462  0.70426875  0.71572995    -0.01800
C1227       C  0.97086830  0.73397502  0.71182453     0.00800
C1228       C  0.97379060  0.75048437  0.66479703    -0.22100
C1229       C  0.97748714  0.73039293  0.63865691    -0.22300
C1230       C  0.97653768  0.70230440  0.67070477     0.00700
H1231       H  0.97396369  0.77467577  0.65078351     0.14500
H1232       H  0.98031679  0.73562550  0.60051880     0.14500
N1233       N  0.96591188  0.82407986  0.84940272    -0.01800
C1234       C  0.96786030  0.79435502  0.85345854     0.00800
C1235       C  0.96588723  0.77803826  0.90024218    -0.22100
C1236       C  0.96239433  0.79822167  0.92614831    -0.22300
C1237       C  0.96248452  0.82616343  0.89423147     0.00700
H1238       H  0.96621859  0.75389860  0.91427566     0.14500
H1239       H  0.96018632  0.79315474  0.96407131     0.14500
N1240       N  0.95702417  0.57937728  0.55749935    -0.04400
N1241       N  0.94853259  0.59520577  0.58824346    -0.56600
N1242       N  0.98359240  0.57875495  0.94225980    -0.04100
N1243       N  0.99362641  0.59671457  0.89785973    -0.58700
N1244       N  0.95424322  0.57850633  0.95762263    -0.03700
N1245       N  0.94381979  0.59640296  0.92393952    -0.56500
N1246       N  0.98637282  0.58012748  0.54172702    -0.03400
N1247       N  0.99843721  0.59652633  0.56125566    -0.59000
C1248       C  0.97462850  0.60570135  0.59036398     0.97700
C1249       C  0.96859745  0.60750250  0.88657612     0.97500
N1250       N  0.53177832  0.00006735  0.95757410    -0.04600
N1251       N  0.54972200  0.98965497  0.92393440    -0.57100
N1252       N  0.53403483  0.53190274  0.54162202    -0.02700
N1253       N  0.55081822  0.54370229  0.56085122    -0.58400
N1254       N  0.53302214  0.00247483  0.55736134    -0.04700
N1255       N  0.54911146  0.99366937  0.58764409    -0.57400
N1256       N  0.53222306  0.52950974  0.94227183    -0.02400
N1257       N  0.55033448  0.53959790  0.89805173    -0.58500
Mn1258     Mn  0.50965056  0.55568472  0.49105890     1.18400
C1259       C  0.56105351  0.51454249  0.88670560     0.99800
C1260       C  0.56001939  0.51965495  0.58964116     1.00500
N1261       N  0.90326468  0.52649034  0.00821801    -0.04700
N1262       N  0.88688328  0.53538262  0.97838754    -0.61000
N1263       N  0.90390024  0.49969386  0.62334092    -0.03500
N1264       N  0.88557663  0.98993004  0.66747405    -0.61700
N1265       N  0.90456451  0.52913911  0.60769498    -0.04200
N1266       N  0.88668185  0.53987380  0.64091177    -0.61200
N1267       N  0.90201154  0.49703338  0.02419573    -0.03100
N1268       N  0.88462427  0.98531886  0.00574602    -0.61900
Mn1269     Mn  0.92916503  0.55402999  0.53271016     1.10700
C1270       C  0.87546600  0.50945459  0.97702494     1.01000
C1271       C  0.87505653  0.51521035  0.67830273     1.01100
N1272       N  0.98215426  0.95035696  0.60809407    -0.04200
N1273       N  0.99265620  0.93203095  0.64130607    -0.59600
N1274       N  0.95003678  0.94842083  0.02439095    -0.03500
N1275       N  0.93828788  0.93115611  0.00575321    -0.56300
N1276       N  0.97941298  0.94943457  0.00868317    -0.04800
N1277       N  0.98822715  0.93299986  0.97899473    -0.59100
N1278       N  0.95278661  0.95008061  0.62368601    -0.03800
N1279       N  0.94286441  0.93166323  0.66781419    -0.56300
Mn1280     Mn  0.50720188  0.97497481  0.53291333     1.20200
Mn1281     Mn  0.92654804  0.97318526  0.57483185     1.10100
Cl1282     Cl  0.96812259  0.51444810  0.53287252    -0.84300
C1283       C  0.96795771  0.92061815  0.67864969     0.98000
C1284       C  0.96236471  0.92181868  0.97728202     0.97800
C1285       C  0.98522335  0.87435272  0.89195913     0.25300
C1286       C  0.96045159  0.85386003  0.90853553    -0.22800
C1287       C  0.93539182  0.85717547  0.94504579     0.20200
C1288       C  0.93543441  0.88004803  0.96615833     0.25200
C1289       C  0.96087916  0.89970127  0.95153808    -0.22800
C1290       C  0.98554639  0.89702348  0.91351847     0.20100
F1291       F  0.51030284  0.91585797  0.89797975    -0.12700
F1292       F  0.00984287  0.87121036  0.85714861    -0.15100
F1293       F  0.91124796  0.88174569  0.00276873    -0.15100
F1294       F  0.91124610  0.83745913  0.96144207    -0.12700
C1295       C  0.99118337  0.85330460  0.76508681     0.25300
C1296       C  0.96675605  0.84844146  0.80674727    -0.22800
C1297       C  0.94293480  0.86749097  0.80617937     0.20200
C1298       C  0.94340663  0.89090445  0.76476384     0.25200
C1299       C  0.96788642  0.89599097  0.72290640    -0.22800
C1300       C  0.99184944  0.87688254  0.72364682     0.20100
F1301       F  0.51564795  0.88046908  0.68393802    -0.12700
F1302       F  0.01457317  0.83534803  0.76477500    -0.15100
F1303       F  0.91989632  0.90874121  0.76584397    -0.15100
F1304       F  0.91869383  0.86278075  0.84544591    -0.12700
C1305       C  0.49509005  0.66106397  0.75975285     0.25300
C1306       C  0.97107750  0.67976201  0.75832963    -0.22800
C1307       C  0.94574862  0.67412246  0.79870129     0.20200
C1308       C  0.94448793  0.65022497  0.83997992     0.25200
C1309       C  0.96889351  0.63183197  0.84197238    -0.22800
C1310       C  0.49413955  0.63750079  0.80114463     0.20100
F1311       F  0.51794847  0.62011363  0.80103516    -0.12700
F1312       F  0.51990749  0.66624138  0.72132827    -0.15100
F1313       F  0.91959940  0.64555237  0.87824105    -0.15100
F1314       F  0.92204312  0.69155344  0.79777216    -0.12700
C1315       C  0.95379651  0.65339639  0.67548504     0.24700
C1316       C  0.97818384  0.67453443  0.65658397    -0.22800
C1317       C  0.00254331  0.67133701  0.61891807     0.20200
C1318       C  0.00200470  0.64812455  0.59872872     0.25200
C1319       C  0.97678557  0.62793951  0.61552859    -0.22800
C1320       C  0.95304259  0.63027467  0.65498748     0.20100
F1321       F  0.92881127  0.61059040  0.67304906    -0.12700
F1322       F  0.92986673  0.65628773  0.71158736    -0.15100
F1323       F  0.52543591  0.64658793  0.56090488    -0.15100
F1324       F  0.52648395  0.69141240  0.60058993    -0.12700
C1325       C  0.99041576  0.74270449  0.77553466     0.25300
C1326       C  0.96910726  0.74803346  0.75011450    -0.22800
C1327       C  0.94802320  0.76960501  0.75744764     0.20200
C1328       C  0.94785541  0.78520091  0.79042640     0.25200
C1329       C  0.96931220  0.78003773  0.81556216    -0.22800
C1330       C  0.99051114  0.75860255  0.80800502     0.20100
F1331       F  0.51169080  0.75346848  0.83153707    -0.12700
F1332       F  0.51200800  0.72319471  0.76733367    -0.15100
F1333       F  0.92601612  0.80439602  0.79914449    -0.15100
F1334       F  0.92735123  0.77532131  0.73294709    -0.12700
C1335       C  0.82924416  0.53097587  0.88960170     0.25300
C1336       C  0.80723592  0.50733499  0.90878543    -0.22800
C1337       C  0.80890798  0.48343627  0.94842061     0.20200
C1338       C  0.83174593  0.48353791  0.96956328     0.25200
C1339       C  0.85307657  0.50786935  0.95182935    -0.22800
C1340       C  0.85194379  0.53131291  0.91107545     0.20100
F1341       F  0.87245767  0.55488470  0.89256653    -0.12700
F1342       F  0.82758361  0.55475796  0.85225754    -0.15100
F1343       F  0.83185073  0.96066739  0.00911210    -0.15100
F1344       F  0.78768227  0.96046143  0.96777139    -0.12700
C1345       C  0.84280102  0.48938611  0.76231190     0.25300
C1346       C  0.85070285  0.51541047  0.72258564    -0.22800
C1347       C  0.83461972  0.54125484  0.72547278     0.20200
C1348       C  0.81093776  0.54074594  0.76653729     0.25200
C1349       C  0.80319536  0.51471799  0.80580872    -0.22800
C1350       C  0.81954859  0.48921258  0.80360278     0.20100
F1351       F  0.81223636  0.96374525  0.84102651    -0.12700
F1352       F  0.85754538  0.96396852  0.76136241    -0.15100
F1353       F  0.79578364  0.56583529  0.76843244    -0.15100
F1354       F  0.84134669  0.56691544  0.68833056    -0.12700
C1355       C  0.59192758  0.54069748  0.80202915     0.25300
C1356       C  0.58566097  0.51499496  0.84233474    -0.22800
C1357       C  0.60373976  0.99035860  0.84002214     0.20200
C1358       C  0.62773957  0.99173705  0.79881010     0.25200
C1359       C  0.63382711  0.51748566  0.75889534    -0.22800
C1360       C  0.61559538  0.54179665  0.76082558     0.20100
F1361       F  0.62124546  0.56700579  0.72289927    -0.12700
F1362       F  0.57499563  0.56483413  0.80216876    -0.15100
F1363       F  0.64475483  0.96775177  0.79749306    -0.15100
F1364       F  0.59860014  0.96510886  0.87787813    -0.12700
C1365       C  0.62170507  0.54947221  0.62500216     0.25300
C1366       C  0.62749536  0.52383173  0.65819680    -0.22800
C1367       C  0.60947242  0.99745161  0.67208285     0.20200
C1368       C  0.58689545  0.99621434  0.65076605     0.25200
C1369       C  0.58186311  0.52156251  0.61568712    -0.22800
C1370       C  0.59891992  0.54850538  0.60419198     0.20100
F1371       F  0.59478790  0.57355257  0.57086139    -0.12700
F1372       F  0.63901073  0.57518022  0.61130803    -0.15100
F1373       F  0.57063983  0.96996400  0.66343227    -0.15100
F1374       F  0.61509730  0.97233430  0.70375891    -0.12700
C1375       C  0.69823443  0.53978795  0.77140531     0.25300
C1376       C  0.70249064  0.51753463  0.74787133    -0.22800
C1377       C  0.72386049  0.99628813  0.75541051     0.20200
C1378       C  0.74003044  0.99660666  0.78741844     0.25200
C1379       C  0.73557023  0.51866912  0.81144069    -0.22800
C1380       C  0.71464682  0.54033408  0.80301116     0.20100
F1381       F  0.71024209  0.56214119  0.82531714    -0.12700
F1382       F  0.67910022  0.56166090  0.76236316    -0.15100
F1383       F  0.75882640  0.97445587  0.79670092    -0.15100
F1384       F  0.72870110  0.97490523  0.73223091    -0.12700
loop_ 
_geom_bond_atom_site_label_1 
_geom_bond_atom_site_label_2 
_geom_bond_distance 
_geom_bond_site_symmetry_2 
_ccdc_geom_bond_type 
N1            C5   1.355       .  A
N1          C348   1.359       .  A
N1          C494   1.446       .  S
C2          N347   1.359       .  A
C2            C3   1.382       .  A
C2          C165   1.471       .  S
C3            C4   1.371       .  A
C3            H6   1.085       .  S
C4          C351   1.381       .  A
C4            H7   1.081       .  S
C5          C350   1.381       .  A
C5          C501   1.468       .  S
N8           C12   1.356       .  A
N8            C9   1.359       .  A
N8          C138   1.444       .  S
C9           C10   1.382       .  A
C9          C168   1.475       .  S
C10          C11   1.372       .  A
C10          H13   1.085       .  S
C11          C12   1.382       .  A
C11          H14   1.081       .  S
C12         C125   1.475       .  S
N15          C19   1.355       .  A
N15          C16   1.359       .  A
N15          C95   1.445       .  S
C16          C17   1.382       .  A
C16         C115   1.474       .  S
C17          C18   1.372       .  A
C17          H20   1.085       .  S
C18          C19   1.382       .  A
C18          H21   1.081       .  S
C19         C105   1.472       .  S
N22          C26   1.356       .  A
N22          C23   1.360       .  A
N22          C85   1.447       .  S
C23          C24   1.382       .  A
C23         C118   1.474       .  S
C24          C25   1.371       .  A
C24          H27   1.085       .  S
C25          C26   1.381       .  A
C25          H28   1.081       .  S
C26          C75   1.471       .  S
N29          N30   1.320       .  A
N29          N35   1.315       .  A
N29         Mn58   2.200       .  S
N30          C37   1.354       .  A
N31          N33   1.316       .  A
N31          N32   1.322       .  A
N31        Mn912   2.209       .  S
N32          C38   1.355       .  A
N33          N34   1.323       .  A
N33        Mn231   2.217       .  S
N34          C38   1.356       .  A
N35          N36   1.319       .  A
N35        Mn739   2.198   1_554  S
N36          C37   1.352       .  A
C37         C108   1.477       .  S
C38          C98   1.492       .  S
N39          N40   1.324       .  A
N39         N391   1.316       .  A
N39        Mn242   2.224       .  S
N40         C394   1.357       .  A
N41          N42   1.318       .  A
N41         N389   1.315       .  A
N41         Mn47   2.199   1_554  S
N42          C49   1.352       .  A
N43          N44   1.320       .  A
N43         N387   1.315       .  A
N43         Mn69   2.196       .  S
N44         C395   1.354       .  A
N45          N46   1.321       .  A
N45         N385   1.316       .  A
N45        Mn220   2.207       .  S
N46          C48   1.355       .  A
Mn47        N896   2.209   1_455  S
Mn47        N727   2.198   1_456  S
Mn47        N218   2.207       .  S
Mn47       Cl763   2.546   1_456  S
C48         N386   1.357   1_545  A
C48         C145   1.494       .  S
C49         N390   1.354   1_545  A
C49         C158   1.480       .  S
N50          N51   1.320       .  A
N50          N56   1.316   1_545  A
N50        Mn231   2.201       .  S
N51          C59   1.354       .  A
N52          N54   1.316   1_565  A
N52         N399   1.322       .  A
N52        Mn416   2.214       .  S
N53         C406   1.356       .  A
N53         N398   1.322       .  A
N54          N55   1.323       .  A
N54         Mn58   2.214       .  S
N55          C60   1.355       .  A
N56         N403   1.320       .  A
N56        Mn589   2.207       .  S
N57         C405   1.353       .  A
N57         N402   1.320       .  A
Mn58        N206   2.217   1_554  S
Mn58        N223   2.201       .  S
Mn58        Cl71   2.555       .  S
C59         N403   1.353   1_545  A
C59         C128   1.479       .  S
C60         N399   1.356   1_545  A
C60         C135   1.494       .  S
N61          N62   1.323       .  A
N61          N67   1.317       .  A
N61        Mn761   2.220       .  S
N62          C72   1.356       .  A
N63          N64   1.320       .  A
N63          N65   1.316       .  A
N63        Mn243   2.206       .  S
N64          C73   1.354       .  A
N65          N66   1.319       .  A
N65        Mn934   2.192       .  S
N66          C73   1.352       .  A
N67          N68   1.323       .  A
N67         Mn70   2.217       .  S
N68          C72   1.356       .  A
Mn69        N212   2.224   1_554  S
Mn69        N753   2.220   1_455  S
Mn69        N930   2.192   1_455  S
Mn69      Cl1109   2.555   1_455  S
Mn70        N398   2.214       .  S
Mn70        N575   2.207       .  S
Mn70        N236   2.206       .  S
Mn70       Cl417   2.549       .  S
Cl71       Mn739   2.546   1_554  S
Cl71      Mn1107   2.555   1_545  S
Cl71       Mn416   2.549   1_545  S
C72          C88   1.494       .  S
C73          C78   1.478       .  S
C74          C75   1.401       .  A
C74          C79   1.399       .  A
C74          F81   1.358       .  S
C75          C76   1.402       .  A
C76          C77   1.396       .  A
C76          F83   1.358       .  S
C77          C78   1.408       .  A
C77          F82   1.358       .  S
C78          C79   1.410       .  A
C79         F772   1.358       .  S
F80         C771   1.358   1_455  S
C84          C85   1.405       .  A
C84          C89   1.405       .  A
C84          F91   1.357       .  S
C85          C86   1.405       .  A
C86          C87   1.403       .  A
C86          F93   1.357       .  S
C87          C88   1.410       .  A
C87          F92   1.357       .  S
C88          C89   1.412       .  A
C89         F782   1.357       .  S
F90         C781   1.357   1_455  S
C94          C99   1.401       .  A
C94         C787   1.404       .  A
C94         F101   1.357   1_655  S
C95          C96   1.404       .  A
C95         C786   1.404       .  A
C96          C97   1.404       .  A
C96         F103   1.357       .  S
C97          C98   1.412       .  A
C97         F102   1.357       .  S
C98         C791   1.410       .  A
C99         C790   1.410       .  A
C99         F100   1.358   1_655  S
C104        C105   1.403       .  A
C104        C109   1.399       .  A
C104        F111   1.357       .  S
C105        C106   1.402       .  A
C106        C107   1.395       .  A
C106        F805   1.358       .  S
C107        C108   1.408       .  A
C107        F804   1.358       .  S
C108        C109   1.408       .  A
C109        F110   1.358       .  S
F112        C799   1.358       .  S
F113        C798   1.358       .  S
C114        C115   1.403       .  A
C114        C119   1.396       .  A
C114        F813   1.357       .  S
C115        C116   1.407       .  A
C116        C117   1.397       .  A
C116        F123   1.358       .  S
C117        C118   1.403       .  A
C117        F122   1.357       .  S
C118        C119   1.406       .  A
C119        F812   1.358       .  S
F120        C811   1.358   1_455  S
F121        C806   1.357   1_455  S
C124        C125   1.403       .  A
C124        C129   1.400       .  A
C124        F131   1.357       .  S
C125        C126   1.404   1_545  A
C126        C127   1.397       .  A
C126        F479   1.358       .  S
C127        C128   1.407   1_565  A
C127        F478   1.358       .  S
C128        C129   1.408       .  A
C129        F130   1.358       .  S
F132        C473   1.358       .  S
F133        C472   1.358       .  S
C134        C135   1.411   1_565  A
C134        C139   1.402       .  A
C134        F487   1.357       .  S
C135        C136   1.413       .  A
C136        C137   1.404       .  A
C136        F143   1.358       .  S
C137        C138   1.403       .  A
C137        F142   1.357       .  S
C138        C139   1.403   1_545  A
C139        F486   1.357       .  S
F140        C485   1.357       .  S
F141        C480   1.357       .  S
C144        C145   1.410       .  A
C144        C149   1.401       .  A
C144        F151   1.358       .  S
C145        C492   1.413   1_545  A
C146        C147   1.407       .  A
C146        C491   1.413       .  A
C146        F153   1.358       .  S
C147        C494   1.405       .  A
C147        F152   1.357       .  S
C148        N347   1.446       .  S
C148        C149   1.403       .  A
C148        C493   1.405   1_545  A
C149        F150   1.357       .  S
C154        C155   1.401       .  A
C154        C159   1.395       .  A
C154        F161   1.358       .  S
C155        C502   1.401   1_545  A
C155        C351   1.468       .  S
C156        C157   1.399       .  A
C156        C501   1.401       .  A
C156        F163   1.358       .  S
C157        C504   1.410       .  A
C157        F162   1.358       .  S
C158        C159   1.410       .  A
C158        C503   1.410   1_545  A
C159        F160   1.358       .  S
C164        C165   1.402       .  A
C164        C169   1.397       .  A
C164        F171   1.357       .  S
C165        C512   1.405   1_545  A
C166        C167   1.397       .  A
C166        C511   1.405       .  A
C166        F173   1.358       .  S
C167        C514   1.404       .  A
C167        F172   1.356       .  S
C168        C169   1.407       .  A
C168        C513   1.404   1_545  A
C169        F170   1.358       .  S
N174        C178   1.355       .  A
N174        C521   1.359       .  A
N174        C667   1.446       .  S
C175        N520   1.359       .  A
C175        C176   1.382       .  A
C175        C338   1.471       .  S
C176        C177   1.371       .  A
C176        H179   1.085       .  S
C177        C524   1.381       .  A
C177        H180   1.081       .  S
C178        C523   1.381       .  A
C178        C674   1.468       .  S
N181        C185   1.356       .  A
N181        C182   1.359       .  A
N181        C311   1.444       .  S
C182        C183   1.382       .  A
C182        C341   1.475       .  S
C183        C184   1.372       .  A
C183        H186   1.085       .  S
C184        C185   1.382       .  A
C184        H187   1.081       .  S
C185        C298   1.475       .  S
N188        C192   1.355       .  A
N188        C189   1.359       .  A
N188        C268   1.445       .  S
C189        C190   1.382       .  A
C189        C288   1.474       .  S
C190        C191   1.372       .  A
C190        H193   1.085       .  S
C191        C192   1.382       .  A
C191        H194   1.081       .  S
C192        C278   1.472       .  S
N195        C199   1.356       .  A
N195        C196   1.360       .  A
N195        C258   1.447       .  S
C196        C197   1.382       .  A
C196        C291   1.474       .  S
C197        C198   1.371       .  A
C197        H200   1.085       .  S
C198        C199   1.381       .  A
C198        H201   1.081       .  S
C199        C248   1.471       .  S
N202        N203   1.320       .  A
N202        N208   1.315       .  A
N202       Mn231   2.200       .  S
N203        C210   1.354       .  A
N204        N206   1.316       .  A
N204        N205   1.322       .  A
N204       Mn739   2.209       .  S
N205        C211   1.355       .  A
N206        N207   1.323       .  A
N207        C211   1.356       .  A
N208        N209   1.319       .  A
N208       Mn912   2.198       .  S
N209        C210   1.352       .  A
C210        C281   1.477       .  S
C211        C271   1.492       .  S
N212        N564   1.316       .  A
N212        N213   1.324       .  A
N213        C567   1.357       .  A
N214        N215   1.318       .  A
N214        N562   1.315       .  A
N214       Mn220   2.199       .  S
N215        C222   1.352       .  A
N216        N560   1.315       .  A
N216        N217   1.320       .  A
N216       Mn242   2.196       .  S
N217        C568   1.354       .  A
N218        N558   1.316       .  A
N218        N219   1.321       .  A
N219        C221   1.355       .  A
Mn220       N723   2.209   1_455  S
Mn220       N900   2.198   1_455  S
Mn220      Cl936   2.546   1_455  S
C221        N559   1.357   1_545  A
C221        C318   1.494       .  S
C222        N563   1.354   1_545  A
C222        C331   1.480       .  S
N223        N224   1.320   1_554  A
N223        N229   1.316   1_545  A
N224        C232   1.354       .  A
N225        N227   1.316   1_565  A
N225        N572   1.322       .  A
N225       Mn589   2.214       .  S
N226        C579   1.356       .  A
N226        N571   1.322       .  A
N227        N228   1.323       .  A
N227       Mn231   2.214       .  S
N228        C233   1.355       .  A
N229        N576   1.320       .  A
N229       Mn416   2.207       .  S
N230        C578   1.353   1_554  A
N230        N575   1.320       .  A
Mn231      Cl244   2.555       .  S
C232        N576   1.353   1_546  A
C232        C301   1.479       .  S
C233        N572   1.356   1_545  A
C233        C308   1.494       .  S
N234        N235   1.323       .  A
N234        N240   1.317       .  A
N234       Mn934   2.220       .  S
N235        C245   1.356       .  A
N236        N237   1.320       .  A
N236        N238   1.316       .  A
N237        C246   1.354   1_554  A
N238        N239   1.319   1_554  A
N238       Mn761   2.192       .  S
N239        C246   1.352       .  A
N240        N241   1.323       .  A
N240       Mn243   2.217       .  S
N241        C245   1.356       .  A
Mn242       N926   2.220   1_455  S
Mn242       N757   2.192   1_455  S
Mn242     Cl1282   2.555   1_455  S
Mn243       N571   2.214       .  S
Mn243       N402   2.207       .  S
Mn243      Cl590   2.549       .  S
Cl244      Mn912   2.546       .  S
Cl244     Mn1280   2.555   1_545  S
Cl244      Mn589   2.549   1_545  S
C245        C261   1.494       .  S
C246        C251   1.478       .  S
C247        C248   1.401       .  A
C247        C252   1.399       .  A
C247        F254   1.358       .  S
C248        C249   1.402       .  A
C249        C250   1.396       .  A
C249        F256   1.358       .  S
C250        C251   1.408       .  A
C250        F255   1.358   1_556  S
C251        C252   1.410       .  A
C252        F945   1.358       .  S
F253        C944   1.358   1_455  S
C257        C258   1.405       .  A
C257        C262   1.405       .  A
C257        F264   1.357       .  S
C258        C259   1.405       .  A
C259        C260   1.403       .  A
C259        F266   1.357       .  S
C260        C261   1.410       .  A
C260        F265   1.357       .  S
C261        C262   1.412       .  A
C262        F955   1.357       .  S
F263        C954   1.357   1_455  S
C267        C960   1.404       .  A
C267        C272   1.401       .  A
C267        F274   1.357   1_655  S
C268        C959   1.404       .  A
C268        C269   1.404       .  A
C269        C270   1.404       .  A
C269        F276   1.357       .  S
C270        C271   1.412       .  A
C270        F275   1.357       .  S
C271        C964   1.410       .  A
C272        C963   1.410       .  A
C272        F273   1.358   1_655  S
C277        C278   1.403       .  A
C277        C282   1.399       .  A
C277        F284   1.357       .  S
C278        C279   1.402       .  A
C279        C280   1.395       .  A
C279        F978   1.358       .  S
C280        C281   1.408       .  A
C280        F977   1.358       .  S
C281        C282   1.408       .  A
C282        F283   1.358       .  S
F285        C972   1.358       .  S
F286        C971   1.358       .  S
C287        C288   1.403       .  A
C287        C292   1.396       .  A
C287        F986   1.357       .  S
C288        C289   1.407       .  A
C289        C290   1.397       .  A
C289        F296   1.358       .  S
C290        C291   1.403       .  A
C290        F295   1.357       .  S
C291        C292   1.406       .  A
C292        F985   1.358       .  S
F293        C984   1.358   1_455  S
F294        C979   1.357   1_455  S
C297        C298   1.403       .  A
C297        C302   1.400       .  A
C297        F304   1.357       .  S
C298        C299   1.404   1_545  A
C299        C300   1.397       .  A
C299        F652   1.358       .  S
C300        C301   1.407   1_565  A
C300        F651   1.358   1_556  S
C301        C302   1.408       .  A
C302        F303   1.358       .  S
F305        C646   1.358   1_554  S
F306        C645   1.358       .  S
C307        C308   1.411   1_565  A
C307        C312   1.402       .  A
C307        F660   1.357       .  S
C308        C309   1.413       .  A
C309        C310   1.404       .  A
C309        F316   1.358       .  S
C310        C311   1.403       .  A
C310        F315   1.357       .  S
C311        C312   1.403   1_545  A
C312        F659   1.357       .  S
F313        C658   1.357       .  S
F314        C653   1.357       .  S
C317        C318   1.410       .  A
C317        C322   1.401       .  A
C317        F324   1.358       .  S
C318        C665   1.413   1_545  A
C319        C664   1.413       .  A
C319        C320   1.407       .  A
C319        F326   1.358       .  S
C320        C667   1.405       .  A
C320        F325   1.357       .  S
C321        N520   1.446       .  S
C321        C666   1.405   1_545  A
C321        C322   1.403       .  A
C322        F323   1.357       .  S
C327        C328   1.401       .  A
C327        C332   1.395       .  A
C327        F334   1.358       .  S
C328        C675   1.401   1_545  A
C328        C524   1.468       .  S
C329        C674   1.401       .  A
C329        C330   1.399       .  A
C329        F336   1.358       .  S
C330        C677   1.410       .  A
C330        F335   1.358       .  S
C331        C676   1.410   1_545  A
C331        C332   1.410       .  A
C332        F333   1.358       .  S
C337        C338   1.402       .  A
C337        C342   1.397       .  A
C337        F344   1.357       .  S
C338        C685   1.405   1_545  A
C339        C684   1.405       .  A
C339        C340   1.397       .  A
C339        F346   1.358       .  S
C340        C687   1.404       .  A
C340        F345   1.356       .  S
C341        C686   1.404   1_545  A
C341        C342   1.407       .  A
C342        F343   1.358       .  S
N347        C351   1.355       .  A
C348        C349   1.382       .  A
C348        C511   1.471       .  S
C349        C350   1.371       .  A
C349        H352   1.085       .  S
C350        H353   1.081       .  S
N354        C358   1.356       .  A
N354        C355   1.359       .  A
N354        C484   1.444       .  S
C355        C356   1.382       .  A
C355        C514   1.475       .  S
C356        C357   1.372       .  A
C356        H359   1.085       .  S
C357        C358   1.382       .  A
C357        H360   1.081       .  S
C358        C471   1.475       .  S
N361        C365   1.355       .  A
N361        C362   1.359       .  A
N361        C441   1.445       .  S
C362        C363   1.382       .  A
C362        C461   1.474       .  S
C363        C364   1.372       .  A
C363        H366   1.085       .  S
C364        C365   1.382       .  A
C364        H367   1.081       .  S
C365        C451   1.472       .  S
N368        C372   1.356       .  A
N368        C369   1.360       .  A
N368        C431   1.447       .  S
C369        C370   1.382       .  A
C369        C464   1.474       .  S
C370        C371   1.371       .  A
C370        H373   1.085       .  S
C371        C372   1.381       .  A
C371        H374   1.081       .  S
C372        C421   1.471       .  S
N375        N376   1.320       .  A
N375        N381   1.315       .  A
N375       Mn404   2.200       .  S
N376        C383   1.354       .  A
N377        N379   1.316       .  A
N377        N378   1.322       .  A
N377      Mn1258   2.209       .  S
N378        C384   1.355       .  A
N379        N380   1.323       .  A
N379       Mn577   2.217       .  S
N380        C384   1.356       .  A
N381        N382   1.319       .  A
N381      Mn1085   2.198   1_554  S
N382        C383   1.352       .  A
C383        C454   1.477       .  S
C384        C444   1.492       .  S
N385        N386   1.324   1_545  A
N385       Mn588   2.224   1_545  S
N387        N388   1.318       .  A
N387       Mn393   2.199   1_554  S
N388        C395   1.352       .  A
N389        N390   1.320   1_545  A
N389       Mn415   2.196   1_545  S
N391        N392   1.321       .  A
N391       Mn566   2.207       .  S
N392        C394   1.355       .  A
Mn393      N1242   2.209   1_455  S
Mn393      N1073   2.198   1_456  S
Mn393       N564   2.207       .  S
Mn393     Cl1109   2.546   1_456  S
C394        C491   1.494       .  S
C395        C504   1.480       .  S
N396        N397   1.320       .  A
N396        N402   1.316       .  A
N396       Mn577   2.201       .  S
N397        C405   1.354       .  A
N398        N400   1.316       .  A
N400        N401   1.323       .  A
N400       Mn404   2.214       .  S
N401        C406   1.355       .  A
Mn404       N552   2.217   1_554  S
Mn404       N569   2.201       .  S
Mn404      Cl417   2.555       .  S
C405        C474   1.479       .  S
C406        C481   1.494       .  S
N407        N408   1.323       .  A
N407        N413   1.317       .  A
N407      Mn1107   2.220       .  S
N408        C418   1.356       .  A
N409        N410   1.320       .  A
N409        N411   1.316       .  A
N409       Mn589   2.206       .  S
N410        C419   1.354       .  A
N411        N412   1.319       .  A
N411      Mn1280   2.192       .  S
N412        C419   1.352       .  A
N413        N414   1.323       .  A
N413       Mn416   2.217       .  S
N414        C418   1.356       .  A
Mn415       N558   2.224   1_564  S
Mn415      N1099   2.220   1_455  S
Mn415      N1276   2.192   1_455  S
Mn415      Cl763   2.555   1_465  S
Mn416       N582   2.206       .  S
Cl417     Mn1085   2.546   1_554  S
Cl417      Mn761   2.555       .  S
C418        C434   1.494       .  S
C419        C424   1.478       .  S
C420        C421   1.401       .  A
C420        C425   1.399       .  A
C420        F427   1.358       .  S
C421        C422   1.402       .  A
C422        C423   1.396       .  A
C422        F429   1.358       .  S
C423        C424   1.408       .  A
C423        F428   1.358       .  S
C424        C425   1.410       .  A
C425       F1118   1.358       .  S
F426       C1117   1.358   1_455  S
C430        C431   1.405       .  A
C430        C435   1.405       .  A
C430        F437   1.357       .  S
C431        C432   1.405       .  A
C432        C433   1.403       .  A
C432        F439   1.357       .  S
C433        C434   1.410       .  A
C433        F438   1.357       .  S
C434        C435   1.412       .  A
C435       F1128   1.357       .  S
F436       C1127   1.357   1_455  S
C440       C1133   1.404       .  A
C440        C445   1.401       .  A
C440        F447   1.357   1_655  S
C441       C1132   1.404       .  A
C441        C442   1.404       .  A
C442        C443   1.404       .  A
C442        F449   1.357       .  S
C443        C444   1.412       .  A
C443        F448   1.357       .  S
C444       C1137   1.410       .  A
C445       C1136   1.410       .  A
C445        F446   1.358   1_655  S
C450        C451   1.403       .  A
C450        C455   1.399       .  A
C450        F457   1.357       .  S
C451        C452   1.402       .  A
C452        C453   1.395       .  A
C452       F1151   1.358       .  S
C453        C454   1.408       .  A
C453       F1150   1.358       .  S
C454        C455   1.408       .  A
C455        F456   1.358       .  S
F458       C1145   1.358       .  S
F459       C1144   1.358       .  S
C460        C461   1.403       .  A
C460        C465   1.396       .  A
C460       F1159   1.357       .  S
C461        C462   1.407       .  A
C462        C463   1.397       .  A
C462        F469   1.358       .  S
C463        C464   1.403       .  A
C463        F468   1.357       .  S
C464        C465   1.406       .  A
C465       F1158   1.358       .  S
F466       C1157   1.358   1_455  S
F467       C1152   1.357   1_455  S
C470        C471   1.403       .  A
C470        C475   1.400       .  A
C470        F477   1.357       .  S
C471        C472   1.404       .  A
C472        C473   1.397       .  A
C473        C474   1.407       .  A
C474        C475   1.408       .  A
C475        F476   1.358       .  S
C480        C481   1.411       .  A
C480        C485   1.402       .  A
C481        C482   1.413       .  A
C482        C483   1.404       .  A
C482        F489   1.358       .  S
C483        C484   1.403       .  A
C483        F488   1.357       .  S
C484        C485   1.403       .  A
C490        C491   1.410       .  A
C490        C495   1.401       .  A
C490        F497   1.358       .  S
C492        C493   1.407       .  A
C492        F499   1.358       .  S
C493        F498   1.357       .  S
C494        C495   1.403       .  A
C495        F496   1.357       .  S
C500        C501   1.401       .  A
C500        C505   1.395       .  A
C500        F507   1.358       .  S
C502        C503   1.399       .  A
C502        F509   1.358       .  S
C503        F508   1.358       .  S
C504        C505   1.410       .  A
C505        F506   1.358       .  S
C510        C511   1.402       .  A
C510        C515   1.397       .  A
C510        F517   1.357       .  S
C512        C513   1.397       .  A
C512        F519   1.358       .  S
C513        F518   1.356       .  S
C514        C515   1.407       .  A
C515        F516   1.358       .  S
N520        C524   1.355       .  A
C521        C522   1.382       .  A
C521        C684   1.471       .  S
C522        C523   1.371       .  A
C522        H525   1.085       .  S
C523        H526   1.081       .  S
N527        C531   1.356       .  A
N527        C528   1.359       .  A
N527        C657   1.444       .  S
C528        C529   1.382       .  A
C528        C687   1.475       .  S
C529        C530   1.372       .  A
C529        H532   1.085       .  S
C530        C531   1.382       .  A
C530        H533   1.081       .  S
C531        C644   1.475       .  S
N534        C538   1.355       .  A
N534        C535   1.359       .  A
N534        C614   1.445       .  S
C535        C536   1.382       .  A
C535        C634   1.474       .  S
C536        C537   1.372       .  A
C536        H539   1.085       .  S
C537        C538   1.382       .  A
C537        H540   1.081       .  S
C538        C624   1.472       .  S
N541        C545   1.356       .  A
N541        C542   1.360       .  A
N541        C604   1.447       .  S
C542        C543   1.382       .  A
C542        C637   1.474       .  S
C543        C544   1.371       .  A
C543        H546   1.085       .  S
C544        C545   1.381       .  A
C544        H547   1.081       .  S
C545        C594   1.471       .  S
N548        N549   1.320       .  A
N548        N554   1.315       .  A
N548       Mn577   2.200       .  S
N549        C556   1.354       .  A
N550        N552   1.316       .  A
N550        N551   1.322       .  A
N550      Mn1085   2.209       .  S
N551        C557   1.355       .  A
N552        N553   1.323       .  A
N553        C557   1.356       .  A
N554        N555   1.319       .  A
N554      Mn1258   2.198       .  S
N555        C556   1.352       .  A
C556        C627   1.477       .  S
C557        C617   1.492       .  S
N558        N559   1.324   1_545  A
N560        N561   1.318       .  A
N560       Mn566   2.199       .  S
N561        C568   1.352       .  A
N562        N563   1.320   1_545  A
N562       Mn588   2.196   1_545  S
N564        N565   1.321       .  A
N565        C567   1.355       .  A
Mn566      N1069   2.209   1_455  S
Mn566      N1246   2.198   1_455  S
Mn566     Cl1282   2.546   1_455  S
C567        C664   1.494       .  S
C568        C677   1.480       .  S
N569        N570   1.320   1_554  A
N569        N575   1.316       .  A
N570        C578   1.354       .  A
N571        N573   1.316       .  A
N573        N574   1.323       .  A
N573       Mn577   2.214       .  S
N574        C579   1.355       .  A
Mn577      Cl590   2.555       .  S
C578        C647   1.479       .  S
C579        C654   1.494       .  S
N580        N581   1.323       .  A
N580        N586   1.317       .  A
N580      Mn1280   2.220       .  S
N581        C591   1.356       .  A
N582        N583   1.320       .  A
N582        N584   1.316       .  A
N583        C592   1.354   1_554  A
N584        N585   1.319   1_554  A
N584      Mn1107   2.192       .  S
N585        C592   1.352       .  A
N586        N587   1.323       .  A
N586       Mn589   2.217       .  S
N587        C591   1.356       .  A
Mn588      N1272   2.220   1_455  S
Mn588      N1103   2.192   1_455  S
Mn588      Cl936   2.555   1_465  S
Cl590     Mn1258   2.546       .  S
Cl590      Mn934   2.555       .  S
C591        C607   1.494       .  S
C592        C597   1.478       .  S
C593        C594   1.401       .  A
C593        C598   1.399       .  A
C593        F600   1.358       .  S
C594        C595   1.402       .  A
C595        C596   1.396       .  A
C595        F602   1.358       .  S
C596        C597   1.408       .  A
C596        F601   1.358   1_556  S
C597        C598   1.410       .  A
C598       F1291   1.358       .  S
F599       C1290   1.358   1_455  S
C603        C604   1.405       .  A
C603        C608   1.405       .  A
C603        F610   1.357       .  S
C604        C605   1.405       .  A
C605        C606   1.403       .  A
C605        F612   1.357       .  S
C606        C607   1.410       .  A
C606        F611   1.357       .  S
C607        C608   1.412       .  A
C608       F1301   1.357       .  S
F609       C1300   1.357   1_455  S
C613       C1306   1.404       .  A
C613        C618   1.401       .  A
C613        F620   1.357   1_655  S
C614       C1305   1.404       .  A
C614        C615   1.404       .  A
C615        C616   1.404       .  A
C615        F622   1.357       .  S
C616        C617   1.412       .  A
C616        F621   1.357       .  S
C617       C1310   1.410       .  A
C618       C1309   1.410       .  A
C618        F619   1.358   1_655  S
C623        C624   1.403       .  A
C623        C628   1.399       .  A
C623        F630   1.357       .  S
C624        C625   1.402       .  A
C625        C626   1.395       .  A
C625       F1324   1.358       .  S
C626        C627   1.408       .  A
C626       F1323   1.358       .  S
C627        C628   1.408       .  A
C628        F629   1.358       .  S
F631       C1318   1.358       .  S
F632       C1317   1.358       .  S
C633        C634   1.403       .  A
C633        C638   1.396       .  A
C633       F1332   1.357       .  S
C634        C635   1.407       .  A
C635        C636   1.397       .  A
C635        F642   1.358       .  S
C636        C637   1.403       .  A
C636        F641   1.357       .  S
C637        C638   1.406       .  A
C638       F1331   1.358       .  S
F639       C1330   1.358   1_455  S
F640       C1325   1.357   1_455  S
C643        C644   1.403       .  A
C643        C648   1.400       .  A
C643        F650   1.357       .  S
C644        C645   1.404       .  A
C645        C646   1.397       .  A
C646        C647   1.407       .  A
C647        C648   1.408       .  A
C648        F649   1.358       .  S
C653        C654   1.411       .  A
C653        C658   1.402       .  A
C654        C655   1.413       .  A
C655        C656   1.404       .  A
C655        F662   1.358       .  S
C656        C657   1.403       .  A
C656        F661   1.357       .  S
C657        C658   1.403       .  A
C663        C664   1.410       .  A
C663        C668   1.401       .  A
C663        F670   1.358       .  S
C665        C666   1.407       .  A
C665        F672   1.358       .  S
C666        F671   1.357       .  S
C667        C668   1.403       .  A
C668        F669   1.357       .  S
C673        C674   1.401       .  A
C673        C678   1.395       .  A
C673        F680   1.358       .  S
C675        C676   1.399       .  A
C675        F682   1.358       .  S
C676        F681   1.358       .  S
C677        C678   1.410       .  A
C678        F679   1.358       .  S
C683        C684   1.402       .  A
C683        C688   1.397       .  A
C683        F690   1.357       .  S
C685        C686   1.397       .  A
C685        F692   1.358       .  S
C686        F691   1.356       .  S
C687        C688   1.407       .  A
C688        F689   1.358       .  S
N693        C697   1.355       .  A
N693       C1040   1.359       .  A
N693       C1186   1.446       .  S
C694       N1039   1.359       .  A
C694        C695   1.382       .  A
C694        C857   1.471       .  S
C695        C696   1.371       .  A
C695        H698   1.085       .  S
C696       C1043   1.381       .  A
C696        H699   1.081       .  S
C697       C1042   1.381       .  A
C697       C1193   1.468       .  S
N700        C704   1.356       .  A
N700        C701   1.359       .  A
N700        C830   1.444       .  S
C701        C702   1.382       .  A
C701        C860   1.475       .  S
C702        C703   1.372       .  A
C702        H705   1.085       .  S
C703        C704   1.382       .  A
C703        H706   1.081       .  S
C704        C817   1.475       .  S
N707        C711   1.355       .  A
N707        C708   1.359       .  A
N707        C787   1.445       .  S
C708        C709   1.382       .  A
C708        C807   1.474       .  S
C709        C710   1.372       .  A
C709        H712   1.085       .  S
C710        C711   1.382       .  A
C710        H713   1.081       .  S
C711        C797   1.472       .  S
N714        C718   1.356       .  A
N714        C715   1.360       .  A
N714        C777   1.447       .  S
C715        C716   1.382       .  A
C715        C810   1.474       .  S
C716        C717   1.371       .  A
C716        H719   1.085       .  S
C717        C718   1.381       .  A
C717        H720   1.081       .  S
C718        C767   1.471       .  S
N721        N722   1.320       .  A
N721        N727   1.315       .  A
N721       Mn750   2.200       .  S
N722        C729   1.354       .  A
N723        N725   1.316       .  A
N723        N724   1.322       .  A
N724        C730   1.355       .  A
N725        N726   1.323       .  A
N725       Mn923   2.217       .  S
N726        C730   1.356       .  A
N727        N728   1.319       .  A
N728        C729   1.352       .  A
C729        C800   1.477       .  S
C730        C790   1.492       .  S
N731       N1083   1.316       .  A
N731        N732   1.324       .  A
N731       Mn934   2.224       .  S
N732       C1086   1.357       .  A
N733        N734   1.318       .  A
N733       N1081   1.315       .  A
N733       Mn739   2.199   1_554  S
N734        C741   1.352       .  A
N735       N1079   1.315       .  A
N735        N736   1.320       .  A
N735       Mn761   2.196       .  S
N736       C1087   1.354       .  A
N737       N1077   1.316       .  A
N737        N738   1.321       .  A
N737       Mn912   2.207       .  S
N738        C740   1.355       .  A
Mn739       N910   2.207       .  S
C740       N1078   1.357   1_545  A
C740        C837   1.494       .  S
C741       N1082   1.354   1_545  A
C741        C850   1.480       .  S
N742        N743   1.320       .  A
N742        N748   1.316   1_545  A
N742       Mn923   2.201       .  S
N743        C751   1.354       .  A
N744        N746   1.316   1_565  A
N744       N1091   1.322       .  A
N744      Mn1108   2.214       .  S
N745       C1098   1.356       .  A
N745       N1090   1.322       .  A
N746        N747   1.323       .  A
N746       Mn750   2.214       .  S
N747        C752   1.355       .  A
N748       N1095   1.320       .  A
N748      Mn1281   2.207       .  S
N749       C1097   1.353       .  A
N749       N1094   1.320       .  A
Mn750       N898   2.217   1_554  S
Mn750       N915   2.201       .  S
Mn750      Cl763   2.555       .  S
C751       N1095   1.353   1_545  A
C751        C820   1.479       .  S
C752       N1091   1.356   1_545  A
C752        C827   1.494       .  S
N753        N754   1.323       .  A
N753        N759   1.317       .  A
N754        C764   1.356       .  A
N755        N756   1.320       .  A
N755        N757   1.316       .  A
N755       Mn935   2.206       .  S
N756        C765   1.354       .  A
N757        N758   1.319       .  A
N758        C765   1.352       .  A
N759        N760   1.323       .  A
N759       Mn762   2.217       .  S
N760        C764   1.356       .  A
Mn761       N904   2.224   1_554  S
Mn762      N1090   2.214       .  S
Mn762      N1267   2.207       .  S
Mn762       N928   2.206       .  S
Mn762     Cl1109   2.549       .  S
Cl763     Mn1108   2.549   1_545  S
C764        C780   1.494       .  S
C765        C770   1.478       .  S
C766        C767   1.401       .  A
C766        C771   1.399       .  A
C766        F773   1.358   1_655  S
C767        C768   1.402       .  A
C768        C769   1.396       .  A
C768        F775   1.358       .  S
C769        C770   1.408       .  A
C769        F774   1.358       .  S
C770        C771   1.410       .  A
C776        C777   1.405       .  A
C776        C781   1.405       .  A
C776        F783   1.357   1_655  S
C777        C778   1.405       .  A
C778        C779   1.403       .  A
C778        F785   1.357       .  S
C779        C780   1.410       .  A
C779        F784   1.357       .  S
C780        C781   1.412       .  A
C786        C791   1.401       .  A
C786        F793   1.357       .  S
C787        C788   1.404       .  A
C788        C789   1.404       .  A
C788        F795   1.357       .  S
C789        C790   1.412       .  A
C789        F794   1.357       .  S
C791        F792   1.358       .  S
C796        C797   1.403       .  A
C796        C801   1.399       .  A
C796        F803   1.357       .  S
C797        C798   1.402   1_655  A
C798        C799   1.395       .  A
C799        C800   1.408   1_455  A
C800        C801   1.408       .  A
C801        F802   1.358       .  S
C806        C807   1.403       .  A
C806        C811   1.396       .  A
C807        C808   1.407       .  A
C808        C809   1.397       .  A
C808        F815   1.358       .  S
C809        C810   1.403       .  A
C809        F814   1.357       .  S
C810        C811   1.406       .  A
C816        C817   1.403       .  A
C816        C821   1.400       .  A
C816        F823   1.357       .  S
C817        C818   1.404   1_545  A
C818        C819   1.397       .  A
C818       F1171   1.358       .  S
C819        C820   1.407   1_565  A
C819       F1170   1.358       .  S
C820        C821   1.408       .  A
C821        F822   1.358       .  S
F824       C1165   1.358       .  S
F825       C1164   1.358       .  S
C826        C827   1.411   1_565  A
C826        C831   1.402       .  A
C826       F1179   1.357       .  S
C827        C828   1.413       .  A
C828        C829   1.404       .  A
C828        F835   1.358       .  S
C829        C830   1.403       .  A
C829        F834   1.357       .  S
C830        C831   1.403   1_545  A
C831       F1178   1.357       .  S
F832       C1177   1.357       .  S
F833       C1172   1.357       .  S
C836        C837   1.410       .  A
C836        C841   1.401       .  A
C836        F843   1.358       .  S
C837       C1184   1.413   1_545  A
C838       C1183   1.413       .  A
C838        C839   1.407       .  A
C838        F845   1.358       .  S
C839       C1186   1.405       .  A
C839        F844   1.357       .  S
C840       N1039   1.446       .  S
C840       C1185   1.405   1_545  A
C840        C841   1.403       .  A
C841        F842   1.357       .  S
C846        C847   1.401       .  A
C846        C851   1.395       .  A
C846        F853   1.358       .  S
C847       C1194   1.401   1_545  A
C847       C1043   1.468       .  S
C848       C1193   1.401       .  A
C848        C849   1.399       .  A
C848        F855   1.358       .  S
C849       C1196   1.410       .  A
C849        F854   1.358       .  S
C850       C1195   1.410   1_545  A
C850        C851   1.410       .  A
C851        F852   1.358       .  S
C856        C857   1.402       .  A
C856        C861   1.397       .  A
C856        F863   1.357       .  S
C857       C1204   1.405   1_545  A
C858       C1203   1.405       .  A
C858        C859   1.397       .  A
C858        F865   1.358       .  S
C859       C1206   1.404       .  A
C859        F864   1.356       .  S
C860       C1205   1.404   1_545  A
C860        C861   1.407       .  A
C861        F862   1.358       .  S
N866        C870   1.355       .  A
N866       C1213   1.359       .  A
N866       C1359   1.446       .  S
C867       N1212   1.359       .  A
C867        C868   1.382       .  A
C867       C1030   1.471       .  S
C868        C869   1.371       .  A
C868        H871   1.085       .  S
C869       C1216   1.381       .  A
C869        H872   1.081       .  S
C870       C1215   1.381       .  A
C870       C1366   1.468       .  S
N873        C877   1.356       .  A
N873        C874   1.359       .  A
N873       C1003   1.444       .  S
C874        C875   1.382       .  A
C874       C1033   1.475       .  S
C875        C876   1.372       .  A
C875        H878   1.085       .  S
C876        C877   1.382       .  A
C876        H879   1.081       .  S
C877        C990   1.475       .  S
N880        C884   1.355       .  A
N880        C881   1.359       .  A
N880        C960   1.445       .  S
C881        C882   1.382       .  A
C881        C980   1.474       .  S
C882        C883   1.372       .  A
C882        H885   1.085       .  S
C883        C884   1.382       .  A
C883        H886   1.081       .  S
C884        C970   1.472       .  S
N887        C891   1.356       .  A
N887        C888   1.360       .  A
N887        C950   1.447       .  S
C888        C889   1.382       .  A
C888        C983   1.474       .  S
C889        C890   1.371       .  A
C889        H892   1.085       .  S
C890        C891   1.381       .  A
C890        H893   1.081       .  S
C891        C940   1.471       .  S
N894        N895   1.320       .  A
N894        N900   1.315       .  A
N894       Mn923   2.200       .  S
N895        C902   1.354       .  A
N896        N898   1.316       .  A
N896        N897   1.322       .  A
N897        C903   1.355       .  A
N898        N899   1.323       .  A
N899        C903   1.356       .  A
N900        N901   1.319       .  A
N901        C902   1.352       .  A
C902        C973   1.477       .  S
C903        C963   1.492       .  S
N904       N1256   1.316       .  A
N904        N905   1.324       .  A
N905       C1259   1.357       .  A
N906        N907   1.318       .  A
N906       N1254   1.315       .  A
N906       Mn912   2.199       .  S
N907        C914   1.352       .  A
N908       N1252   1.315       .  A
N908        N909   1.320       .  A
N908       Mn934   2.196       .  S
N909       C1260   1.354       .  A
N910       N1250   1.316       .  A
N910        N911   1.321       .  A
N911        C913   1.355       .  A
C913       N1251   1.357   1_545  A
C913       C1010   1.494       .  S
C914       N1255   1.354   1_545  A
C914       C1023   1.480       .  S
N915        N916   1.320   1_554  A
N915        N921   1.316   1_545  A
N916        C924   1.354       .  A
N917        N919   1.316   1_565  A
N917       N1264   1.322       .  A
N917      Mn1281   2.214       .  S
N918       C1271   1.356       .  A
N918       N1263   1.322       .  A
N919        N920   1.323       .  A
N919       Mn923   2.214       .  S
N920        C925   1.355       .  A
N921       N1268   1.320       .  A
N921      Mn1108   2.207       .  S
N922       C1270   1.353   1_554  A
N922       N1267   1.320       .  A
Mn923      Cl936   2.555       .  S
C924       N1268   1.353   1_546  A
C924        C993   1.479       .  S
C925       N1264   1.356   1_545  A
C925       C1000   1.494       .  S
N926        N927   1.323       .  A
N926        N932   1.317       .  A
N927        C937   1.356       .  A
N928        N929   1.320       .  A
N928        N930   1.316       .  A
N929        C938   1.354   1_554  A
N930        N931   1.319   1_554  A
N931        C938   1.352       .  A
N932        N933   1.323       .  A
N932       Mn935   2.217       .  S
N933        C937   1.356       .  A
Mn935      N1263   2.214       .  S
Mn935      N1094   2.207       .  S
Mn935     Cl1282   2.549       .  S
Cl936     Mn1281   2.549   1_545  S
C937        C953   1.494       .  S
C938        C943   1.478       .  S
C939        C940   1.401       .  A
C939        C944   1.399       .  A
C939        F946   1.358   1_655  S
C940        C941   1.402       .  A
C941        C942   1.396       .  A
C941        F948   1.358       .  S
C942        C943   1.408       .  A
C942        F947   1.358   1_556  S
C943        C944   1.410       .  A
C949        C950   1.405       .  A
C949        C954   1.405       .  A
C949        F956   1.357   1_655  S
C950        C951   1.405       .  A
C951        C952   1.403       .  A
C951        F958   1.357       .  S
C952        C953   1.410       .  A
C952        F957   1.357       .  S
C953        C954   1.412       .  A
C959        C964   1.401       .  A
C959        F966   1.357       .  S
C960        C961   1.404       .  A
C961        C962   1.404       .  A
C961        F968   1.357       .  S
C962        C963   1.412       .  A
C962        F967   1.357       .  S
C964        F965   1.358       .  S
C969        C970   1.403       .  A
C969        C974   1.399       .  A
C969        F976   1.357       .  S
C970        C971   1.402   1_655  A
C971        C972   1.395       .  A
C972        C973   1.408   1_455  A
C973        C974   1.408       .  A
C974        F975   1.358       .  S
C979        C980   1.403       .  A
C979        C984   1.396       .  A
C980        C981   1.407       .  A
C981        C982   1.397       .  A
C981        F988   1.358       .  S
C982        C983   1.403       .  A
C982        F987   1.357       .  S
C983        C984   1.406       .  A
C989        C990   1.403       .  A
C989        C994   1.400       .  A
C989        F996   1.357       .  S
C990        C991   1.404   1_545  A
C991        C992   1.397       .  A
C991       F1344   1.358       .  S
C992        C993   1.407   1_565  A
C992       F1343   1.358   1_556  S
C993        C994   1.408       .  A
C994        F995   1.358       .  S
F997       C1338   1.358   1_554  S
F998       C1337   1.358       .  S
C999       C1000   1.411   1_565  A
C999       C1004   1.402       .  A
C999       F1352   1.357       .  S
C1000      C1001   1.413       .  A
C1001      C1002   1.404       .  A
C1001      F1008   1.358       .  S
C1002      C1003   1.403       .  A
C1002      F1007   1.357       .  S
C1003      C1004   1.403   1_545  A
C1004      F1351   1.357       .  S
F1005      C1350   1.357       .  S
F1006      C1345   1.357       .  S
C1009      C1010   1.410       .  A
C1009      C1014   1.401       .  A
C1009      F1016   1.358       .  S
C1010      C1357   1.413   1_545  A
C1011      C1356   1.413       .  A
C1011      C1012   1.407       .  A
C1011      F1018   1.358       .  S
C1012      C1359   1.405       .  A
C1012      F1017   1.357       .  S
C1013      N1212   1.446       .  S
C1013      C1358   1.405   1_545  A
C1013      C1014   1.403       .  A
C1014      F1015   1.357       .  S
C1019      C1020   1.401       .  A
C1019      C1024   1.395       .  A
C1019      F1026   1.358       .  S
C1020      C1367   1.401   1_545  A
C1020      C1216   1.468       .  S
C1021      C1366   1.401       .  A
C1021      C1022   1.399       .  A
C1021      F1028   1.358       .  S
C1022      C1369   1.410       .  A
C1022      F1027   1.358       .  S
C1023      C1368   1.410   1_545  A
C1023      C1024   1.410       .  A
C1024      F1025   1.358       .  S
C1029      C1030   1.402       .  A
C1029      C1034   1.397       .  A
C1029      F1036   1.357       .  S
C1030      C1377   1.405   1_545  A
C1031      C1376   1.405       .  A
C1031      C1032   1.397       .  A
C1031      F1038   1.358       .  S
C1032      C1379   1.404       .  A
C1032      F1037   1.356       .  S
C1033      C1378   1.404   1_545  A
C1033      C1034   1.407       .  A
C1034      F1035   1.358       .  S
N1039      C1043   1.355       .  A
C1040      C1041   1.382       .  A
C1040      C1203   1.471       .  S
C1041      C1042   1.371       .  A
C1041      H1044   1.085       .  S
C1042      H1045   1.081       .  S
N1046      C1050   1.356       .  A
N1046      C1047   1.359       .  A
N1046      C1176   1.444       .  S
C1047      C1048   1.382       .  A
C1047      C1206   1.475       .  S
C1048      C1049   1.372       .  A
C1048      H1051   1.085       .  S
C1049      C1050   1.382       .  A
C1049      H1052   1.081       .  S
C1050      C1163   1.475       .  S
N1053      C1057   1.355       .  A
N1053      C1054   1.359       .  A
N1053      C1133   1.445       .  S
C1054      C1055   1.382       .  A
C1054      C1153   1.474       .  S
C1055      C1056   1.372       .  A
C1055      H1058   1.085       .  S
C1056      C1057   1.382       .  A
C1056      H1059   1.081       .  S
C1057      C1143   1.472       .  S
N1060      C1064   1.356       .  A
N1060      C1061   1.360       .  A
N1060      C1123   1.447       .  S
C1061      C1062   1.382       .  A
C1061      C1156   1.474       .  S
C1062      C1063   1.371       .  A
C1062      H1065   1.085       .  S
C1063      C1064   1.381       .  A
C1063      H1066   1.081       .  S
C1064      C1113   1.471       .  S
N1067      N1068   1.320       .  A
N1067      N1073   1.315       .  A
N1067     Mn1096   2.200       .  S
N1068      C1075   1.354       .  A
N1069      N1071   1.316       .  A
N1069      N1070   1.322       .  A
N1070      C1076   1.355       .  A
N1071      N1072   1.323       .  A
N1071     Mn1269   2.217       .  S
N1072      C1076   1.356       .  A
N1073      N1074   1.319       .  A
N1074      C1075   1.352       .  A
C1075      C1146   1.477       .  S
C1076      C1136   1.492       .  S
N1077      N1078   1.324   1_545  A
N1077     Mn1280   2.224   1_545  S
N1079      N1080   1.318       .  A
N1079     Mn1085   2.199   1_554  S
N1080      C1087   1.352       .  A
N1081      N1082   1.320   1_545  A
N1081     Mn1107   2.196   1_545  S
N1083      N1084   1.321       .  A
N1083     Mn1258   2.207       .  S
N1084      C1086   1.355       .  A
Mn1085     N1256   2.207       .  S
C1086      C1183   1.494       .  S
C1087      C1196   1.480       .  S
N1088      N1089   1.320       .  A
N1088      N1094   1.316       .  A
N1088     Mn1269   2.201       .  S
N1089      C1097   1.354       .  A
N1090      N1092   1.316       .  A
N1092      N1093   1.323       .  A
N1092     Mn1096   2.214       .  S
N1093      C1098   1.355       .  A
Mn1096     N1244   2.217   1_554  S
Mn1096     N1261   2.201       .  S
Mn1096    Cl1109   2.555       .  S
C1097      C1166   1.479       .  S
C1098      C1173   1.494       .  S
N1099      N1100   1.323       .  A
N1099      N1105   1.317       .  A
N1100      C1110   1.356       .  A
N1101      N1102   1.320       .  A
N1101      N1103   1.316       .  A
N1101     Mn1281   2.206       .  S
N1102      C1111   1.354       .  A
N1103      N1104   1.319       .  A
N1104      C1111   1.352       .  A
N1105      N1106   1.323       .  A
N1105     Mn1108   2.217       .  S
N1106      C1110   1.356       .  A
Mn1107     N1250   2.224   1_564  S
Mn1108     N1274   2.206       .  S
C1110      C1126   1.494       .  S
C1111      C1116   1.478       .  S
C1112      C1113   1.401       .  A
C1112      C1117   1.399       .  A
C1112      F1119   1.358   1_655  S
C1113      C1114   1.402       .  A
C1114      C1115   1.396       .  A
C1114      F1121   1.358       .  S
C1115      C1116   1.408       .  A
C1115      F1120   1.358       .  S
C1116      C1117   1.410       .  A
C1122      C1123   1.405       .  A
C1122      C1127   1.405       .  A
C1122      F1129   1.357   1_655  S
C1123      C1124   1.405       .  A
C1124      C1125   1.403       .  A
C1124      F1131   1.357       .  S
C1125      C1126   1.410       .  A
C1125      F1130   1.357       .  S
C1126      C1127   1.412       .  A
C1132      C1137   1.401       .  A
C1132      F1139   1.357       .  S
C1133      C1134   1.404       .  A
C1134      C1135   1.404       .  A
C1134      F1141   1.357       .  S
C1135      C1136   1.412       .  A
C1135      F1140   1.357       .  S
C1137      F1138   1.358       .  S
C1142      C1143   1.403       .  A
C1142      C1147   1.399       .  A
C1142      F1149   1.357       .  S
C1143      C1144   1.402   1_655  A
C1144      C1145   1.395       .  A
C1145      C1146   1.408   1_455  A
C1146      C1147   1.408       .  A
C1147      F1148   1.358       .  S
C1152      C1153   1.403       .  A
C1152      C1157   1.396       .  A
C1153      C1154   1.407       .  A
C1154      C1155   1.397       .  A
C1154      F1161   1.358       .  S
C1155      C1156   1.403       .  A
C1155      F1160   1.357       .  S
C1156      C1157   1.406       .  A
C1162      C1163   1.403       .  A
C1162      C1167   1.400       .  A
C1162      F1169   1.357       .  S
C1163      C1164   1.404       .  A
C1164      C1165   1.397       .  A
C1165      C1166   1.407       .  A
C1166      C1167   1.408       .  A
C1167      F1168   1.358       .  S
C1172      C1173   1.411       .  A
C1172      C1177   1.402       .  A
C1173      C1174   1.413       .  A
C1174      C1175   1.404       .  A
C1174      F1181   1.358       .  S
C1175      C1176   1.403       .  A
C1175      F1180   1.357       .  S
C1176      C1177   1.403       .  A
C1182      C1183   1.410       .  A
C1182      C1187   1.401       .  A
C1182      F1189   1.358       .  S
C1184      C1185   1.407       .  A
C1184      F1191   1.358       .  S
C1185      F1190   1.357       .  S
C1186      C1187   1.403       .  A
C1187      F1188   1.357       .  S
C1192      C1193   1.401       .  A
C1192      C1197   1.395       .  A
C1192      F1199   1.358       .  S
C1194      C1195   1.399       .  A
C1194      F1201   1.358       .  S
C1195      F1200   1.358       .  S
C1196      C1197   1.410       .  A
C1197      F1198   1.358       .  S
C1202      C1203   1.402       .  A
C1202      C1207   1.397       .  A
C1202      F1209   1.357       .  S
C1204      C1205   1.397       .  A
C1204      F1211   1.358       .  S
C1205      F1210   1.356       .  S
C1206      C1207   1.407       .  A
C1207      F1208   1.358       .  S
N1212      C1216   1.355       .  A
C1213      C1214   1.382       .  A
C1213      C1376   1.471       .  S
C1214      C1215   1.371       .  A
C1214      H1217   1.085       .  S
C1215      H1218   1.081       .  S
N1219      C1223   1.356       .  A
N1219      C1220   1.359       .  A
N1219      C1349   1.444       .  S
C1220      C1221   1.382       .  A
C1220      C1379   1.475       .  S
C1221      C1222   1.372       .  A
C1221      H1224   1.085       .  S
C1222      C1223   1.382       .  A
C1222      H1225   1.081       .  S
C1223      C1336   1.475       .  S
N1226      C1230   1.355       .  A
N1226      C1227   1.359       .  A
N1226      C1306   1.445       .  S
C1227      C1228   1.382       .  A
C1227      C1326   1.474       .  S
C1228      C1229   1.372       .  A
C1228      H1231   1.085       .  S
C1229      C1230   1.382       .  A
C1229      H1232   1.081       .  S
C1230      C1316   1.472       .  S
N1233      C1237   1.356       .  A
N1233      C1234   1.360       .  A
N1233      C1296   1.447       .  S
C1234      C1235   1.382       .  A
C1234      C1329   1.474       .  S
C1235      C1236   1.371       .  A
C1235      H1238   1.085       .  S
C1236      C1237   1.381       .  A
C1236      H1239   1.081       .  S
C1237      C1286   1.471       .  S
N1240      N1241   1.320       .  A
N1240      N1246   1.315       .  A
N1240     Mn1269   2.200       .  S
N1241      C1248   1.354       .  A
N1242      N1244   1.316       .  A
N1242      N1243   1.322       .  A
N1243      C1249   1.355       .  A
N1244      N1245   1.323       .  A
N1245      C1249   1.356       .  A
N1246      N1247   1.319       .  A
N1247      C1248   1.352       .  A
C1248      C1319   1.477       .  S
C1249      C1309   1.492       .  S
N1250      N1251   1.324   1_545  A
N1252      N1253   1.318       .  A
N1252     Mn1258   2.199       .  S
N1253      C1260   1.352       .  A
N1254      N1255   1.320   1_545  A
N1254     Mn1280   2.196   1_545  S
N1256      N1257   1.321       .  A
N1257      C1259   1.355       .  A
C1259      C1356   1.494       .  S
C1260      C1369   1.480       .  S
N1261      N1262   1.320   1_554  A
N1261      N1267   1.316       .  A
N1262      C1270   1.354       .  A
N1263      N1265   1.316       .  A
N1265      N1266   1.323       .  A
N1265     Mn1269   2.214       .  S
N1266      C1271   1.355       .  A
Mn1269    Cl1282   2.555       .  S
C1270      C1339   1.479       .  S
C1271      C1346   1.494       .  S
N1272      N1273   1.323       .  A
N1272      N1278   1.317       .  A
N1273      C1283   1.356       .  A
N1274      N1275   1.320       .  A
N1274      N1276   1.316       .  A
N1275      C1284   1.354   1_554  A
N1276      N1277   1.319   1_554  A
N1277      C1284   1.352       .  A
N1278      N1279   1.323       .  A
N1278     Mn1281   2.217       .  S
N1279      C1283   1.356       .  A
C1283      C1299   1.494       .  S
C1284      C1289   1.478       .  S
C1285      C1286   1.401       .  A
C1285      C1290   1.399       .  A
C1285      F1292   1.358   1_655  S
C1286      C1287   1.402       .  A
C1287      C1288   1.396       .  A
C1287      F1294   1.358       .  S
C1288      C1289   1.408       .  A
C1288      F1293   1.358   1_556  S
C1289      C1290   1.410       .  A
C1295      C1296   1.405       .  A
C1295      C1300   1.405       .  A
C1295      F1302   1.357   1_655  S
C1296      C1297   1.405       .  A
C1297      C1298   1.403       .  A
C1297      F1304   1.357       .  S
C1298      C1299   1.410       .  A
C1298      F1303   1.357       .  S
C1299      C1300   1.412       .  A
C1305      C1310   1.401       .  A
C1305      F1312   1.357       .  S
C1306      C1307   1.404       .  A
C1307      C1308   1.404       .  A
C1307      F1314   1.357       .  S
C1308      C1309   1.412       .  A
C1308      F1313   1.357       .  S
C1310      F1311   1.358       .  S
C1315      C1316   1.403       .  A
C1315      C1320   1.399       .  A
C1315      F1322   1.357       .  S
C1316      C1317   1.402   1_655  A
C1317      C1318   1.395       .  A
C1318      C1319   1.408   1_455  A
C1319      C1320   1.408       .  A
C1320      F1321   1.358       .  S
C1325      C1326   1.403       .  A
C1325      C1330   1.396       .  A
C1326      C1327   1.407       .  A
C1327      C1328   1.397       .  A
C1327      F1334   1.358       .  S
C1328      C1329   1.403       .  A
C1328      F1333   1.357       .  S
C1329      C1330   1.406       .  A
C1335      C1336   1.403       .  A
C1335      C1340   1.400       .  A
C1335      F1342   1.357       .  S
C1336      C1337   1.404       .  A
C1337      C1338   1.397       .  A
C1338      C1339   1.407       .  A
C1339      C1340   1.408       .  A
C1340      F1341   1.358       .  S
C1345      C1346   1.411       .  A
C1345      C1350   1.402       .  A
C1346      C1347   1.413       .  A
C1347      C1348   1.404       .  A
C1347      F1354   1.358       .  S
C1348      C1349   1.403       .  A
C1348      F1353   1.357       .  S
C1349      C1350   1.403       .  A
C1355      C1356   1.410       .  A
C1355      C1360   1.401       .  A
C1355      F1362   1.358       .  S
C1357      C1358   1.407       .  A
C1357      F1364   1.358       .  S
C1358      F1363   1.357       .  S
C1359      C1360   1.403       .  A
C1360      F1361   1.357       .  S
C1365      C1366   1.401       .  A
C1365      C1370   1.395       .  A
C1365      F1372   1.358       .  S
C1367      C1368   1.399       .  A
C1367      F1374   1.358       .  S
C1368      F1373   1.358       .  S
C1369      C1370   1.410       .  A
C1370      F1371   1.358       .  S
C1375      C1376   1.402       .  A
C1375      C1380   1.397       .  A
C1375      F1382   1.357       .  S
C1377      C1378   1.397       .  A
C1377      F1384   1.358       .  S
C1378      F1383   1.356       .  S
C1379      C1380   1.407       .  A
C1380      F1381   1.358       .  S
