geometry optimzed in LAMMPS
_audit_creation_date              2020-11-30 
_audit_creation_method            'lammps2cif' 
_symmetry_space_group_name_H-M    'P1' 
_symmetry_Int_Tables_number       1 
_symmetry_cell_setting            triclinic 
loop_ 
_symmetry_equiv_pos_as_xyz 
  x,y,z 
_cell_length_a                    48.28773927 
_cell_length_b                    48.4081463074286 
_cell_length_c                    48.38075350556778 
_cell_angle_alpha                 90.09813023441806 
_cell_angle_beta                  90.02754322128978 
_cell_angle_gamma                 89.99584269528245 
loop_ 
_atom_site_label 
_atom_site_type_symbol 
_atom_site_fract_x 
_atom_site_fract_y 
_atom_site_fract_z 
_atom_site_charge 
O1          O  0.94105948  0.00624369  0.95844659    -0.77300
C2          C  0.01038979  0.95161566  0.95140811     0.83800
O3          O  0.95542559  0.96983029  0.05085394    -0.78400
O4          O  0.05380093  0.98683039  0.02438639    -0.79800
O5          O  0.01862415  0.06642123  0.98097326    -0.79600
O6          O  0.95256348  0.05044916  0.96342662    -0.78300
Zn7        Zn  0.96563377  0.98384328  0.98254412     1.55700
O8          O  0.04982578  0.03311016  0.97435006    -0.79700
Cd9        Cd  0.98295433  0.04644840  0.99399150     1.59700
Cd10       Cd  0.98675944  0.99869374  0.04276102     1.59600
O11         O  0.97048254  0.06660973  0.02982245    -0.79700
O12         O  0.99140003  0.00666728  0.00228471    -1.90200
Cd13       Cd  0.03029347  0.99799458  0.99014031     1.59900
O14         O  0.97663981  0.03503747  0.06286342    -0.79600
O15         O  0.03055319  0.96566196  0.96123317    -0.78300
C16         C  0.93862738  0.95878071  0.03374695     0.84300
C17         C  0.93780432  0.03156315  0.95239102     0.83900
O18         O  0.98551544  0.95668787  0.95848022    -0.77200
C19         C  0.04285087  0.05857212  0.97395973     0.84700
O20         O  0.94064542  0.96314448  0.00792400    -0.77300
C21         C  0.97056803  0.05952364  0.05522455     0.84900
C22         C  0.04838653  0.98290961  0.04990649     0.85200
O23         O  0.02392015  0.98539163  0.05956754    -0.79700
O24         O  0.00706720  0.30462918  0.29770026    -0.77300
C25         C  0.95652917  0.31119886  0.22821705     0.83800
O26         O  0.96769445  0.21294388  0.29136996    -0.78400
O27         O  0.98297835  0.23192028  0.19181782    -0.79800
O28         O  0.06781928  0.27466982  0.22532865    -0.79600
O29         O  0.05151184  0.29500028  0.29066596    -0.78300
Zn30       Zn  0.98383076  0.27942089  0.27541983     1.55700
O31         O  0.03542617  0.27744768  0.19253222    -0.79700
Cd32       Cd  0.04682514  0.26339143  0.26117628     1.59700
Cd33       Cd  0.99679030  0.21724566  0.25959535     1.59600
O34         O  0.06557450  0.22690394  0.27452543    -0.79700
O35         O  0.00656002  0.25677150  0.25208124    -1.90200
Cd36       Cd  0.99864952  0.26645828  0.21232087     1.59900
O37         O  0.03225034  0.19531415  0.26963344    -0.79600
O38         O  0.96993515  0.29892989  0.20904239    -0.78300
C39         C  0.95561841  0.23156917  0.30563835     0.84300
C40         C  0.03253855  0.30940187  0.30211663     0.83900
O41         O  0.95974243  0.30459654  0.25345004    -0.77200
C42         C  0.06067675  0.27912909  0.20029689     0.84700
O43         O  0.96030972  0.25710154  0.30135367    -0.77300
C44         C  0.05726812  0.20185064  0.27510780     0.84900
C45         C  0.97747038  0.20723603  0.19936308     0.85200
O46         O  0.98105747  0.19927330  0.22421307    -0.79700
O47         O  0.75273021  0.29539763  0.45091338    -0.77300
C48         C  0.80627024  0.29654584  0.52030316     0.83800
O49         O  0.79208003  0.20199736  0.45880288    -0.78400
O50         O  0.76897707  0.22129743  0.55756681    -0.79800
O51         O  0.69085673  0.26731662  0.52174869    -0.79600
O52         O  0.70814651  0.28641342  0.45699224    -0.78300
Zn53       Zn  0.77470902  0.26896217  0.47312006     1.55700
O54         O  0.72327804  0.27229733  0.55423714    -0.79700
Cd55       Cd  0.71183174  0.25491201  0.48649861     1.59700
Cd56       Cd  0.76057800  0.20690062  0.48869310     1.59600
O57         O  0.69235295  0.21910372  0.47292266    -0.79700
O58         O  0.75154823  0.24684872  0.49610597    -1.90200
Cd59       Cd  0.75911002  0.25698278  0.53580173     1.59900
O60         O  0.72489348  0.18648211  0.47562255    -0.79600
O61         O  0.79161306  0.28580538  0.53947495    -0.78300
C62         C  0.80280646  0.22076976  0.44367381     0.84300
C63         C  0.72743737  0.30044446  0.44570923     0.83900
O64         O  0.80154342  0.29106681  0.49505692    -0.77200
C65         C  0.69805381  0.27356088  0.54635299     0.84700
O66         O  0.79665998  0.24607648  0.44705073    -0.77300
C67         C  0.69997785  0.19393732  0.47073204     0.84900
C68         C  0.77306109  0.19614618  0.55067674     0.85200
O69         O  0.77177814  0.18813705  0.52553769    -0.79700
O70         O  0.80015673  0.99514271  0.79305256    -0.77300
C71         C  0.73034571  0.94112172  0.79838357     0.83800
O72         O  0.79024423  0.95603333  0.70097099    -0.78400
O73         O  0.69007516  0.97474643  0.72290730    -0.79800
O74         O  0.72487754  0.05480339  0.76689249    -0.79600
O75         O  0.79059550  0.03913129  0.78442421    -0.78300
Zn76       Zn  0.77634600  0.97225084  0.76841461     1.55700
O77         O  0.69263433  0.02234083  0.77223116    -0.79700
Cd78       Cd  0.76017234  0.03410509  0.75424717     1.59700
Cd79       Cd  0.75784738  0.98466299  0.70665952     1.59600
O80         O  0.77253006  0.05321872  0.71819726    -0.79700
O81         O  0.75159238  0.99425378  0.74675883    -1.90200
Cd82       Cd  0.71220989  0.98648725  0.75789352     1.59900
O83         O  0.76791551  0.02074310  0.68568596    -0.79600
O84         O  0.71054517  0.95516711  0.78788328    -0.78300
C85         C  0.80624941  0.94606227  0.71945058     0.84300
C86         C  0.80421671  0.02071840  0.79743077     0.83900
O87         O  0.75543718  0.94578374  0.79189748    -0.77200
C88         C  0.70026183  0.04760314  0.77314730     0.84700
O89         O  0.80251598  0.95115702  0.74492408    -0.77300
C90         C  0.77311382  0.04558801  0.69296170     0.84900
C91         C  0.69634443  0.96925044  0.69784082     0.85200
O92         O  0.72124015  0.97029187  0.68899974    -0.79700
O93         O  0.29921621  0.95239449  0.24329816    -0.77300
C94         C  0.30552912  0.02495747  0.29412497     0.83800
O95         O  0.20989746  0.95932996  0.28645016    -0.78400
O96         O  0.22439998  0.05876423  0.26730181    -0.79800
O97         O  0.27342988  0.02654622  0.18538548    -0.79600
O98         O  0.28766607  0.95915340  0.19937617    -0.78300
Zn99       Zn  0.27578550  0.97663524  0.26686608     1.55700
O100        O  0.27226448  0.05935944  0.21777162    -0.79700
Cd101      Cd  0.25879246  0.99111504  0.20517471     1.59700
Cd102      Cd  0.21194252  0.99045792  0.25593025     1.59600
O103        O  0.22182138  0.98056481  0.18630879    -0.79700
O104        O  0.25142821  0.99921032  0.24537367    -1.90200
Cd105      Cd  0.25965968  0.03910287  0.25347491     1.59900
O106        O  0.19049954  0.97908265  0.22027432    -0.79600
O107        O  0.29046827  0.04367342  0.28335103    -0.78300
C108        C  0.22982311  0.94750838  0.29923313     0.84300
C109        C  0.30227509  0.94713848  0.21774289     0.83900
O110        O  0.30185917  0.99952209  0.28877558    -0.77200
C111        C  0.27683172  0.05162546  0.19294425     0.84700
O112        O  0.25489941  0.95291962  0.29327124    -0.77300
C113        C  0.19702223  0.97703986  0.19473630     0.84900
C114        C  0.19975018  0.05124300  0.27298551     0.85200
O115        O  0.19210800  0.02605881  0.27066815    -0.79700
O116        O  0.04718565  0.54622522  0.50387962    -0.77300
C117        C  0.97228128  0.55592577  0.55213182     0.83800
O118        O  0.03887048  0.45870637  0.54291143    -0.78400
O119        O  0.93975646  0.47131849  0.52654999    -0.79800
O120        O  0.96938550  0.52211175  0.44439821    -0.79600
O121        O  0.03569377  0.54091018  0.45980114    -0.78300
Zn122      Zn  0.02070616  0.52446600  0.52644570     1.55700
O123        O  0.93700293  0.51954172  0.47711076    -0.79700
Cd124      Cd  0.00565219  0.51020943  0.46404065     1.59700
Cd125      Cd  0.00883352  0.46165128  0.51155154     1.59600
O126        O  0.01997434  0.47550440  0.44350337    -0.79700
O127        O  0.99817537  0.50104400  0.50383083    -1.90200
Cd128      Cd  0.95802903  0.50804825  0.51301097     1.59900
O129        O  0.02330642  0.44268747  0.47558317    -0.79600
O130        O  0.95345296  0.54021587  0.54220159    -0.78300
C131        C  0.04947220  0.47789208  0.55766972     0.84300
C132        C  0.05073621  0.55189392  0.47849042     0.83900
O133        O  0.99774636  0.55173386  0.54696600    -0.77200
C134        C  0.94418914  0.52407095  0.45209276     0.84700
O135        O  0.04317286  0.50307611  0.55359637    -0.77300
C136        C  0.02580825  0.45080637  0.45059698     0.84900
C137        C  0.94848126  0.44644753  0.52852756     0.85200
O138        O  0.97370692  0.44014184  0.52363397    -0.79700
O139        O  0.45929471  0.29923215  0.75070644    -0.77300
C140        C  0.45005347  0.22303003  0.79616993     0.83800
O141        O  0.54821937  0.28747533  0.78806067    -0.78400
O142        O  0.53053074  0.18920719  0.76678547    -0.79800
O143        O  0.48125712  0.22490996  0.68579313    -0.79600
O144        O  0.46414502  0.29134780  0.70576287    -0.78300
Zn145      Zn  0.48149608  0.27166303  0.77144935     1.55700
O146        O  0.48342438  0.19119768  0.71711749    -0.79700
Cd147      Cd  0.49440005  0.25995429  0.70775361     1.59700
Cd148      Cd  0.54377916  0.25778287  0.75634329     1.59600
O149        O  0.53039331  0.27361534  0.68830708    -0.79700
O150        O  0.50380433  0.24981856  0.74723091    -1.90200
Cd151      Cd  0.49515198  0.20975691  0.75400476     1.59900
O152        O  0.56336008  0.27134863  0.72065913    -0.79600
O153        O  0.46383477  0.20432205  0.78364433    -0.78300
C154        C  0.52926654  0.29775291  0.80335175     0.84300
C155        C  0.45342043  0.30492846  0.72574367     0.83900
O156        O  0.45512938  0.24848810  0.79236813    -0.77200
C157        C  0.47906719  0.19944154  0.69243210     0.84700
O158        O  0.50388120  0.29231090  0.79913087    -0.77300
C159        C  0.55564109  0.27618666  0.69587167     0.84900
C160        C  0.55559972  0.19632327  0.77118339     0.85200
O161        O  0.56358899  0.22135750  0.76853945    -0.79700
O162        O  0.79892960  0.75695044  0.96054006    -0.77300
C163        C  0.72918795  0.80897814  0.95688565     0.83800
O164        O  0.78775217  0.79551251  0.05392914    -0.78400
O165        O  0.69042582  0.77533685  0.03262001    -0.79800
O166        O  0.72648082  0.69498651  0.98815613    -0.79600
O167        O  0.79173015  0.71251043  0.96928781    -0.78300
Zn168      Zn  0.77607957  0.77898468  0.98674965     1.55700
O169        O  0.69378917  0.72723483  0.98360871    -0.79700
Cd170      Cd  0.76184584  0.71617497  0.00036640     1.59700
Cd171      Cd  0.75829658  0.76438562  0.04839065     1.59600
O172        O  0.77580972  0.69699615  0.03601773    -0.79700
O173        O  0.75216475  0.75579153  0.00821924    -1.90200
Cd174      Cd  0.71257894  0.76338730  0.99759241     1.59900
O175        O  0.77133156  0.72902170  0.06893460    -0.79600
O176        O  0.70982997  0.79419344  0.96711600    -0.78300
C177        C  0.80347152  0.80688282  0.03608274     0.84300
C178        C  0.80359183  0.73158752  0.95551405     0.83900
O179        O  0.75434449  0.80525966  0.96369749    -0.77200
C180        C  0.70168867  0.70207523  0.98235209     0.84700
O181        O  0.80153584  0.80124804  0.01046651    -0.77300
C182        C  0.77727806  0.70446838  0.06128166     0.84900
C183        C  0.69668750  0.77911161  0.05801381     0.85200
O184        O  0.72147500  0.77648442  0.06678194    -0.79700
O185        O  0.30068755  0.24705121  0.94770191    -0.77300
C186        C  0.22508046  0.29726767  0.94225099     0.83800
O187        O  0.29423922  0.28782771  0.03527400    -0.78400
O188        O  0.19556815  0.26825148  0.02550488    -0.79800
O189        O  0.22363020  0.18757993  0.97311388    -0.79600
O190        O  0.29129136  0.20267528  0.95428875    -0.78300
Zn191      Zn  0.27447618  0.26953374  0.96978614     1.55700
O192        O  0.19175308  0.22083774  0.97579429    -0.79700
Cd193      Cd  0.26049004  0.20707423  0.98484777     1.59700
Cd194      Cd  0.26472002  0.25567190  0.03366217     1.59600
O195        O  0.27452553  0.18705435  0.02007364    -0.79700
O196        O  0.25324163  0.24700633  0.99435072    -1.90200
Cd197      Cd  0.21306312  0.25600085  0.98839551     1.59900
O198        O  0.28014193  0.21969163  0.05227145    -0.79600
O199        O  0.20722960  0.28698342  0.95871914    -0.78300
C200        C  0.30441726  0.30173268  0.01527036     0.84300
C201        C  0.30565568  0.22171271  0.94299194     0.83900
O202        O  0.25060530  0.29105084  0.94399391    -0.77200
C203        C  0.19851881  0.19574572  0.97116349     0.84700
O204        O  0.29766695  0.29650078  0.99040735    -0.77300
C205        C  0.28141180  0.19443177  0.04448109     0.84900
C206        C  0.20445105  0.27162115  0.05014216     0.85200
O207        O  0.22992972  0.26801162  0.05638697    -0.79700
O208        O  0.74669424  0.44675502  0.29307171    -0.77300
C209        C  0.80162510  0.44720041  0.22432656     0.83800
O210        O  0.78745516  0.53895080  0.29080034    -0.78400
O211        O  0.76919270  0.52662025  0.19058097    -0.79800
O212        O  0.68820445  0.47920578  0.22036917    -0.79600
O213        O  0.70256798  0.45785577  0.28626638    -0.78300
Zn214      Zn  0.77004947  0.47331818  0.27231243     1.55700
O215        O  0.72146190  0.47715337  0.18839970    -0.79700
Cd216      Cd  0.70808460  0.48951179  0.25719529     1.59700
Cd217      Cd  0.75788351  0.53642901  0.25924385     1.59600
O218        O  0.68897536  0.52498106  0.27172292    -0.79700
O219        O  0.74830029  0.49720864  0.24944864    -1.90200
Cd220      Cd  0.75718546  0.48988626  0.20936371     1.59900
O221        O  0.72227768  0.55700822  0.27140769    -0.79600
O222        O  0.78926169  0.46061299  0.20522286    -0.78300
C223        C  0.79805025  0.51948648  0.30507147     0.84300
C224        C  0.72108403  0.44284644  0.29757172     0.83900
O225        O  0.79576049  0.45089052  0.24965923    -0.77200
C226        C  0.69599471  0.47529228  0.19542779     0.84700
O227        O  0.79245321  0.49429655  0.30007455    -0.77300
C228        C  0.69714477  0.54980438  0.27519848     0.84900
C229        C  0.77411297  0.55104858  0.19931611     0.85200
O230        O  0.77199244  0.55743692  0.22480550    -0.79700
O231        O  0.45765113  0.94401130  0.49633467    -0.77300
C232        C  0.44589516  0.01755810  0.44462889     0.83800
O233        O  0.54571123  0.95886251  0.45782836    -0.78400
O234        O  0.52587141  0.05598556  0.47218921    -0.79800
O235        O  0.47678557  0.02711719  0.55437719    -0.79600
O236        O  0.45990763  0.95867633  0.53988272    -0.78300
Zn237      Zn  0.47820103  0.97190250  0.47368147     1.55700
O238        O  0.47834407  0.05792526  0.52019714    -0.79700
Cd239      Cd  0.48982662  0.99015671  0.53579360     1.59700
Cd240      Cd  0.53996029  0.98878613  0.48861934     1.59600
O241        O  0.52552634  0.97795432  0.55662563    -0.79700
O242        O  0.49966303  0.99663337  0.49598153    -1.90200
Cd243      Cd  0.49052626  0.03577273  0.48559012     1.59900
O244        O  0.55907548  0.97638225  0.52495053    -0.79600
O245        O  0.45944917  0.03748017  0.45545213    -0.78300
C246        C  0.52731787  0.94747620  0.44271410     0.84300
C247        C  0.45098992  0.94168344  0.52166697     0.83900
O248        O  0.45101115  0.99264666  0.45108835    -0.77200
C249        C  0.47442252  0.05190970  0.54554706     0.84700
O250        O  0.50165811  0.95158971  0.44672733    -0.77300
C251        C  0.55075464  0.97370839  0.54985950     0.84900
C252        C  0.55133765  0.04914369  0.47050941     0.85200
O253        O  0.55964605  0.02469090  0.47580450    -0.79700
O254        O  0.00276092  0.70150714  0.70844366    -0.77300
C255        C  0.05704556  0.77197382  0.70860224     0.83800
O256        O  0.03768503  0.70703927  0.80225582    -0.78400
O257        O  0.02203116  0.80660944  0.78656976    -0.79800
O258        O  0.94264910  0.77582765  0.73404775    -0.79600
O259        O  0.95813373  0.70991778  0.71524280    -0.78300
Zn260      Zn  0.02474019  0.72427453  0.73486856     1.55700
O261        O  0.97601596  0.80765636  0.73525322    -0.79700
Cd262      Cd  0.96163645  0.73955883  0.74685733     1.59700
Cd263      Cd  0.00801615  0.73823244  0.79717576     1.59600
O264        O  0.93999995  0.72641106  0.78152837    -0.79700
O265        O  0.00135555  0.74729658  0.75710905    -1.90200
Cd266      Cd  0.01096835  0.78708440  0.74971793     1.59900
O267        O  0.97135067  0.72543941  0.81533927    -0.79600
O268        O  0.04311967  0.79094874  0.72063281    -0.78300
C269        C  0.04974013  0.69282850  0.78356126     0.84300
C270        C  0.97746260  0.69712185  0.70256813     0.83900
O271        O  0.05185287  0.74657086  0.71293866    -0.77200
C272        C  0.95089438  0.80065635  0.73076722     0.84700
O273        O  0.04586371  0.69770751  0.75803892    -0.77300
C274        C  0.94652812  0.72243555  0.80678348     0.84900
C275        C  0.02362471  0.79870358  0.81170334     0.85200
O276        O  0.01952598  0.77359130  0.81861614    -0.79700
O277        O  0.44663377  0.79079889  0.25284981    -0.77300
C278        C  0.44391226  0.71907225  0.30508523     0.83800
O279        O  0.53822984  0.78245780  0.29288100    -0.78400
O280        O  0.52166925  0.68388119  0.27108594    -0.79800
O281        O  0.47661760  0.71981086  0.19149606    -0.79600
O282        O  0.45656037  0.78505969  0.20851072    -0.78300
Zn283      Zn  0.47169424  0.76717869  0.27529627     1.55700
O284        O  0.47209011  0.68660614  0.22327522    -0.79700
Cd285      Cd  0.48803167  0.75525946  0.21263326     1.59700
Cd286      Cd  0.53451832  0.75265372  0.26199234     1.59600
O287        O  0.52441697  0.76965944  0.19420628    -0.79700
O288        O  0.49487495  0.74488847  0.25234034    -1.90200
Cd289      Cd  0.48567587  0.70487497  0.25964721     1.59900
O290        O  0.55600173  0.76626446  0.22762933    -0.79600
O291        O  0.45559207  0.70011586  0.29086702    -0.78300
C292        C  0.51917991  0.79593615  0.30517029     0.84300
C293        C  0.44238639  0.79660783  0.22759011     0.83900
O294        O  0.44868991  0.74444529  0.30047988    -0.77200
C295        C  0.47102942  0.69493579  0.19827472     0.84700
O296        O  0.49377584  0.79182799  0.29965342    -0.77300
C297        C  0.54937132  0.77185800  0.20275476     0.84900
C298        C  0.54654448  0.69149071  0.27598621     0.85200
O299        O  0.55391376  0.71672308  0.27431922    -0.79700
O300        O  0.19602632  0.75222762  0.54875359    -0.77300
C301        C  0.18840731  0.70330934  0.47380478     0.83800
O302        O  0.28416140  0.70796421  0.53877008    -0.78400
O303        O  0.27133653  0.72802469  0.44091951    -0.79800
O304        O  0.22571764  0.81140010  0.47511073    -0.79600
O305        O  0.20875967  0.79596824  0.54286691    -0.78300
Zn306      Zn  0.21844296  0.72891789  0.52291615     1.55700
O307        O  0.22527577  0.77960100  0.44156657    -0.79700
Cd308      Cd  0.23799811  0.79056920  0.51071971     1.59700
Cd309      Cd  0.28304322  0.73977892  0.50983199     1.59600
O310        O  0.27560848  0.80844175  0.52195371    -0.79700
O311        O  0.24376428  0.75052493  0.50113247    -1.90200
Cd312      Cd  0.23607264  0.74284442  0.46087495     1.59900
O313        O  0.30601423  0.77384415  0.52300189    -0.79600
O314        O  0.20426213  0.71393392  0.45562429    -0.78300
C315        C  0.26424043  0.69435604  0.54947438     0.84300
C316        C  0.19383560  0.77771811  0.55479559     0.83900
O317        O  0.19147911  0.70838337  0.49939982    -0.77200
C318        C  0.22250667  0.80454559  0.44976382     0.84700
O319        O  0.23908446  0.70059478  0.54471405    -0.77300
C320        C  0.30022669  0.79947749  0.52553006     0.84900
C321        C  0.29588918  0.72275163  0.44914516     0.85200
O322        O  0.30285120  0.72577229  0.47442047    -0.79700
O323        O  0.29888563  0.45488460  0.75582282    -0.77300
C324        C  0.30211346  0.53170271  0.80094428     0.83800
O325        O  0.20798687  0.46140974  0.79226742    -0.78400
O326        O  0.22190503  0.56057707  0.77248051    -0.79800
O327        O  0.26926750  0.52306434  0.69006859    -0.79600
O328        O  0.28977596  0.45924949  0.71097037    -0.78300
Zn329      Zn  0.27411089  0.48040285  0.77711870     1.55700
O330        O  0.26721345  0.55870794  0.71930152    -0.79700
Cd331      Cd  0.25818493  0.48880363  0.71306788     1.59700
Cd332      Cd  0.21106355  0.49143832  0.76167921     1.59600
O333        O  0.22242863  0.47351605  0.69422830    -0.79700
O334        O  0.25041105  0.50043160  0.75230462    -1.90200
Cd335      Cd  0.25735028  0.54115034  0.75717457     1.59900
O336        O  0.19017486  0.47786241  0.72684434    -0.79600
O337        O  0.28967665  0.54857058  0.78496611    -0.78300
C338        C  0.22704342  0.45073998  0.80701698     0.84300
C339        C  0.30314807  0.44802344  0.73075154     0.83900
O340        O  0.29738228  0.50586043  0.80015958    -0.77200
C341        C  0.27108754  0.54887832  0.69509125     0.84700
O342        O  0.25236313  0.45695489  0.80326245    -0.77300
C343        C  0.19728561  0.47169435  0.70219052     0.84900
C344        C  0.19775242  0.55180896  0.77876370     0.85200
O345        O  0.19113962  0.52645994  0.77592831    -0.79700
O346        O  0.49615373  0.45765034  0.94612892    -0.77300
C347        C  0.44337881  0.45554979  0.01637673     0.83800
O348        O  0.46185345  0.55200180  0.95638107    -0.78400
O349        O  0.47848218  0.52779518  0.05494218    -0.79800
O350        O  0.55973134  0.48339288  0.01907793    -0.79600
O351        O  0.54100800  0.46538986  0.95295209    -0.78300
Zn352      Zn  0.47464673  0.48416180  0.96931828     1.55700
O353        O  0.52756265  0.47975196  0.05194962    -0.79700
Cd354      Cd  0.53861645  0.49623668  0.98370032     1.59700
Cd355      Cd  0.49085407  0.54478336  0.98771414     1.59600
O356        O  0.55885837  0.53248802  0.97176106    -0.79700
O357        O  0.49891654  0.50451838  0.99330808    -1.90200
Cd358      Cd  0.49139777  0.49343769  0.03272998     1.59900
O359        O  0.52720560  0.56540720  0.97821335    -0.79600
O360        O  0.45979903  0.46389247  0.03532557    -0.78300
C361        C  0.45023993  0.53457422  0.94034392     0.84300
C362        C  0.52142007  0.45230331  0.94084488     0.83900
O363        O  0.44662272  0.46280469  0.99127744    -0.77200
C364        C  0.55275431  0.47823395  0.04401203     0.84700
O365        O  0.45418477  0.50874215  0.94300301    -0.77300
C366        C  0.55187152  0.55796960  0.97237658     0.84900
C367        C  0.47350992  0.55290219  0.04864125     0.85200
O368        O  0.47642965  0.56184540  0.02404684    -0.79700
C369        C  0.38859023  0.56607919  0.90371330    -0.27000
C370        C  0.38974010  0.55230518  0.87813363     0.06700
C371        C  0.41272438  0.53556032  0.87210939     0.26300
C372        C  0.43313551  0.53112806  0.89207967    -0.11400
C373        C  0.43137758  0.54378223  0.91815093    -0.25400
C374        C  0.40947168  0.56217082  0.92351364     0.37100
C375        C  0.36549671  0.55200528  0.85936079     0.06700
F376        F  0.41432958  0.52177848  0.84769896    -0.19200
H377        H  0.44986708  0.51689625  0.88755876     0.16500
F378        F  0.40708084  0.57454899  0.94858981    -0.22900
H379        H  0.37093351  0.57895678  0.90873106     0.18300
C380        C  0.34074272  0.53946445  0.86804536     0.26300
C381        C  0.31963098  0.53412576  0.84902501    -0.11400
C382        C  0.32253558  0.54175479  0.82122222    -0.25500
C383        C  0.34653061  0.55581603  0.81279484     0.37200
C384        C  0.36801413  0.56061303  0.83173544    -0.27100
F385        F  0.33783225  0.53051217  0.89446265    -0.19200
H386        H  0.30130505  0.52312251  0.85580251     0.16500
F387        F  0.35003811  0.56296954  0.78591200    -0.22900
H388        H  0.38706277  0.57007205  0.82464400     0.18300
C389        C  0.25432371  0.62892033  0.59095980    -0.27000
C390        C  0.27885479  0.62785181  0.60643430     0.06700
C391        C  0.29961602  0.64764906  0.60156906     0.26300
C392        C  0.29521186  0.66885358  0.58237838    -0.11400
C393        C  0.27001294  0.67069549  0.56793698    -0.25400
C394        C  0.24986095  0.65002637  0.57193035     0.37100
C395        C  0.28139627  0.60692193  0.62858773     0.06700
F396        F  0.32402285  0.64655491  0.61544360    -0.19200
H397        H  0.31119028  0.68427020  0.57940203     0.16500
F398        F  0.22569548  0.65020139  0.55756209    -0.22900
H399        H  0.23810718  0.61380947  0.59427306     0.18300
C400        C  0.28644980  0.61495469  0.65606976     0.26300
C401        C  0.28416834  0.59572335  0.67748308    -0.11400
C402        C  0.27679207  0.56815225  0.67195601    -0.25500
C403        C  0.27291454  0.55991944  0.64423559     0.37200
C404        C  0.27518994  0.57917461  0.62288641    -0.27100
F405        F  0.29168114  0.64176613  0.66245389    -0.19200
H406        H  0.28728877  0.60268519  0.69855179     0.16500
F407        F  0.26534378  0.53369158  0.63774236    -0.22900
H408        H  0.27108977  0.57261410  0.60184573     0.18300
C409        C  0.44643835  0.63068287  0.16030109    -0.27000
C410        C  0.45909465  0.63430125  0.13439629     0.06700
C411        C  0.47405055  0.65873510  0.12935254     0.26300
C412        C  0.47655760  0.67881732  0.14986962    -0.11400
C413        C  0.46485067  0.67480624  0.17609729    -0.25400
C414        C  0.44944969  0.65062308  0.18110707     0.37100
C415        C  0.45820252  0.61220784  0.11309518     0.06700
F416        F  0.48765910  0.66256833  0.10510954    -0.19200
H417        H  0.48889731  0.69700805  0.14559547     0.16500
F418        F  0.43743033  0.64618964  0.20606469    -0.22900
H419        H  0.43451589  0.61222164  0.16454962     0.18300
C420        C  0.46523440  0.58478379  0.11967223     0.26300
C421        C  0.46866436  0.56519347  0.09867543    -0.11400
C422        C  0.46542943  0.57258422  0.07074845    -0.25500
C423        C  0.45667206  0.59961378  0.06438546     0.37200
C424        C  0.45289942  0.61903835  0.08540283    -0.27100
F425        F  0.47069868  0.57731680  0.14614984    -0.19200
H426        H  0.47528017  0.54457080  0.10427168     0.16500
F427        F  0.45260564  0.60768594  0.03783409    -0.22900
H428        H  0.44677057  0.63984210  0.07990864     0.18300
C429        C  0.40410243  0.72648640  0.37170124    -0.27000
C430        C  0.38334288  0.70637800  0.36904773     0.01900
C431        C  0.38395715  0.68857950  0.34591590     0.26300
C432        C  0.40459815  0.69155045  0.32560476    -0.11400
C433        C  0.42459411  0.71251423  0.32792735    -0.25400
C434        C  0.42449148  0.72948989  0.35157327     0.37100
C435        C  0.36054579  0.70569908  0.38979610     0.06700
F436        F  0.36450744  0.66857473  0.34284818    -0.19200
H437        H  0.40426411  0.67826285  0.30755152     0.16500
F438        F  0.44397137  0.74943877  0.35503355    -0.22900
H439        H  0.40402326  0.74069492  0.38904441     0.18300
C440        C  0.36644456  0.70748847  0.41823931     0.26300
C441        C  0.34518185  0.71167456  0.43738640    -0.11400
C442        C  0.31745840  0.71421605  0.42877935    -0.25500
C443        C  0.31135815  0.71062216  0.40045306     0.37200
C444        C  0.33273653  0.70650805  0.38125021    -0.27100
F445        F  0.39294247  0.70596472  0.42750725    -0.19200
H446        H  0.35068082  0.71393885  0.45898525     0.16500
F447        F  0.28491326  0.71208931  0.39105607    -0.22900
H448        H  0.32760740  0.70534715  0.35947330     0.18300
C449        C  0.11854911  0.76390957  0.66048055    -0.27000
C450        C  0.11808314  0.78873503  0.64568804     0.06700
C451        C  0.09893597  0.80930323  0.65321108     0.26300
C452        C  0.07980651  0.80444065  0.67460979    -0.11400
C453        C  0.07941721  0.77892166  0.68858049    -0.25400
C454        C  0.09961955  0.75899989  0.68170147     0.37100
C455        C  0.13565582  0.79103122  0.62067621     0.06700
F456        F  0.09789157  0.83345223  0.63905231    -0.19200
H457        H  0.06455767  0.82013890  0.67941240     0.16500
F458        F  0.10083392  0.73440810  0.69510199    -0.22900
H459        H  0.13319086  0.74785495  0.65495519     0.18300
C460        C  0.16124345  0.80494730  0.62104628     0.26300
C461        C  0.17971401  0.80229088  0.59865720    -0.11400
C462        C  0.17294488  0.78539169  0.57594485    -0.25500
C463        C  0.14672800  0.77270925  0.57518665     0.37200
C464        C  0.12835043  0.77557430  0.59727961    -0.27100
F465        F  0.16901308  0.81960214  0.64369495    -0.19200
H466        H  0.19988329  0.81200552  0.59981634     0.16500
F467        F  0.13923726  0.75668494  0.55336829    -0.22900
H468        H  0.10878570  0.76462823  0.59669931     0.18300
C469        C  0.10647141  0.65051806  0.81798321    -0.27000
C470        C  0.11007196  0.62945918  0.79828375     0.06700
C471        C  0.09214136  0.62806516  0.77551677     0.26300
C472        C  0.07188942  0.64816796  0.77174475    -0.11400
C473        C  0.06881300  0.66998297  0.79069540    -0.25400
C474        C  0.08567323  0.67051930  0.81446041     0.37100
C475        C  0.13363974  0.61004510  0.79964909     0.06700
F476        F  0.09528693  0.60808157  0.75603546    -0.19200
H477        H  0.05900111  0.64706935  0.75341911     0.16500
F478        F  0.08312962  0.69111896  0.83334583    -0.22900
H479        H  0.12016160  0.65178681  0.83569701     0.18300
C480        C  0.16061548  0.61930605  0.79407489     0.26300
C481        C  0.18177170  0.60026699  0.78861711    -0.11400
C482        C  0.17637728  0.57167520  0.78866601    -0.25500
C483        C  0.14968008  0.56255561  0.79636409     0.37200
C484        C  0.12858416  0.58162589  0.80157466    -0.27100
F485        F  0.16596527  0.64673623  0.79178455    -0.19200
H486        H  0.20206299  0.60800710  0.78304265     0.16500
F487        F  0.14346202  0.53524624  0.79768853    -0.22900
H488        H  0.10784146  0.57418963  0.80581564     0.18300
C489        C  0.52239712  0.90878361  0.37565937    -0.27000
C490        C  0.53873783  0.88552698  0.38119125     0.06700
C491        C  0.55496284  0.88485295  0.40530072     0.26300
C492        C  0.55316688  0.90644902  0.42461624    -0.11400
C493        C  0.53498044  0.92862382  0.42003506    -0.25400
C494        C  0.52047792  0.93016203  0.39487412     0.37100
C495        C  0.53539199  0.86085303  0.36358658     0.06700
F496        F  0.57069137  0.86237779  0.41115485    -0.19200
H497        H  0.56431963  0.90483842  0.44397267     0.16500
F498        F  0.50332577  0.95173669  0.38951408    -0.22900
H499        H  0.50992448  0.90964315  0.35705305     0.18300
C500        C  0.50964149  0.84746911  0.36288418     0.26300
C501        C  0.50504448  0.82582949  0.34448394    -0.11400
C502        C  0.52596904  0.81707515  0.32626758    -0.25500
C503        C  0.55220046  0.82979039  0.32771964     0.37200
C504        C  0.55682061  0.85156867  0.34634736    -0.27100
F505        F  0.48873298  0.85571038  0.37975899    -0.19200
H506        H  0.48477631  0.81621844  0.34419048     0.16500
F507        F  0.57289550  0.82211818  0.31036474    -0.22900
H508        H  0.57676912  0.86180553  0.34667171     0.18300
C509        C  0.34102226  0.86668455  0.53117384    -0.27000
C510        C  0.36790278  0.85714235  0.53675824     0.06700
C511        C  0.37198389  0.82862280  0.54075075     0.26300
C512        C  0.34978010  0.81009995  0.53804055    -0.11400
C513        C  0.32298641  0.81954930  0.53142200    -0.25400
C514        C  0.31883533  0.84826397  0.52847171     0.37100
C515        C  0.39148415  0.87704840  0.53637341     0.06700
F516        F  0.39744933  0.81862646  0.54715852    -0.19200
H517        H  0.35372227  0.78823260  0.54064663     0.16500
F518        F  0.29361756  0.85864635  0.52172236    -0.22900
H519        H  0.33735381  0.88849874  0.52779042     0.18300
C520        C  0.41434852  0.87264920  0.51887205     0.26300
C521        C  0.43424054  0.89336000  0.51529410    -0.11400
C522        C  0.43207619  0.91875844  0.52927299    -0.25500
C523        C  0.41007784  0.92266272  0.54790309     0.37200
C524        C  0.38987824  0.90206094  0.55119649    -0.27100
F525        F  0.41650612  0.84913184  0.50370241    -0.19200
H526        H  0.45099515  0.88986625  0.50080739     0.16500
F527        F  0.40700456  0.94706806  0.56139704    -0.22900
H528        H  0.37244019  0.90597114  0.56472995     0.18300
C529        C  0.62725198  0.47403313  0.15675216    -0.27000
C530        C  0.63517917  0.46459894  0.13043933     0.06700
C531        C  0.66299914  0.45686429  0.12624145     0.26300
C532        C  0.68247718  0.45953399  0.14762573    -0.11400
C533        C  0.67468593  0.46973873  0.17375493    -0.25400
C534        C  0.64660200  0.47649925  0.17817910     0.37100
C535        C  0.61479367  0.46499109  0.10719392     0.06700
F536        F  0.67141046  0.44683367  0.10141110    -0.19200
H537        H  0.70381929  0.45395496  0.14357517     0.16500
F538        F  0.63794309  0.48691149  0.20276809    -0.22900
H539        H  0.60614074  0.48061991  0.16048801     0.18300
C540        C  0.58764125  0.45486010  0.11055422     0.26300
C541        C  0.56783572  0.45835731  0.08962197    -0.11400
C542        C  0.57465426  0.47172729  0.06473961    -0.25500
C543        C  0.60212797  0.48088829  0.06099114     0.37200
C544        C  0.62181011  0.47761500  0.08201402    -0.27100
F545        F  0.58017435  0.44174217  0.13417694    -0.19200
H546        H  0.54695452  0.45093019  0.09307640     0.16500
F547        F  0.60967031  0.49453565  0.03769321    -0.22900
H548        H  0.64235526  0.48609038  0.07900495     0.18300
C549        C  0.63139425  0.58475229  0.30002381    -0.27000
C550        C  0.63401125  0.61092772  0.28779118     0.06700
C551        C  0.65858956  0.61748694  0.27364419     0.26300
C552        C  0.67964342  0.59789428  0.27101714    -0.11400
C553        C  0.67648781  0.57127215  0.28203795    -0.25400
C554        C  0.65238590  0.56500246  0.29712175     0.37100
C555        C  0.61059092  0.63075926  0.28817480     0.06700
F556        F  0.66156200  0.64224553  0.26084540    -0.19200
H557        H  0.69785761  0.60311559  0.25904367     0.16500
F558        F  0.64902192  0.53975599  0.30881780    -0.22900
H559        H  0.61281703  0.57943989  0.31137569     0.18300
C560        C  0.58419047  0.62281041  0.27878625     0.26300
C561        C  0.56307118  0.64242318  0.27611765    -0.11400
C562        C  0.56789162  0.67036871  0.28251847    -0.25500
C563        C  0.59405780  0.67802565  0.29302989     0.37200
C564        C  0.61505926  0.65835701  0.29587309    -0.27100
F565        F  0.57929229  0.59643548  0.27055195    -0.19200
H566        H  0.54328449  0.63589441  0.26782164     0.16500
F567        F  0.59965494  0.70460570  0.30005557    -0.22900
H568        H  0.63513980  0.66483320  0.30349929     0.18300
C569        C  0.22838821  0.34066613  0.87786996    -0.27000
C570        C  0.21036860  0.36235903  0.88441385     0.06700
C571        C  0.19408752  0.36071418  0.90842721     0.26300
C572        C  0.19728963  0.33826970  0.92654817    -0.11400
C573        C  0.21694074  0.31754661  0.92090337    -0.25400
C574        C  0.23168691  0.31847064  0.89584181     0.37100
C575        C  0.21178973  0.38771552  0.86759439     0.06700
F576        F  0.17658091  0.38158740  0.91519816    -0.19200
H577        H  0.18579179  0.33801799  0.94576344     0.16500
F578        F  0.25017656  0.29839705  0.88920563    -0.22900
H579        H  0.24092691  0.34160182  0.85931971     0.18300
C580        C  0.23593241  0.40379315  0.86857706     0.26300
C581        C  0.24009742  0.42486196  0.84945482    -0.11400
C582        C  0.22028591  0.43040761  0.82889777    -0.25500
C583        C  0.19533273  0.41523951  0.82885462     0.37200
C584        C  0.19121729  0.39395398  0.84810274    -0.27100
F585        F  0.25603605  0.39830303  0.88742058    -0.19200
H586        H  0.25930803  0.43639943  0.85032552     0.16500
F587        F  0.17567864  0.41983514  0.80933785    -0.22900
H588        H  0.17259817  0.38151481  0.84698224     0.18300
C589        C  0.34689055  0.35982907  0.04853390    -0.27000
C590        C  0.36111096  0.37015611  0.02536308     0.06700
C591        C  0.35789458  0.35664234  0.99983259     0.26300
C592        C  0.33986537  0.33435365  0.99720847    -0.11400
C593        C  0.32468168  0.32448897  0.01995828    -0.25400
C594        C  0.32876728  0.33716551  0.04592049     0.37100
C595        C  0.37931260  0.39491122  0.02716711     0.06700
F596        F  0.37246684  0.36484728  0.97728812    -0.19200
H597        H  0.33780901  0.32479525  0.97704590     0.16500
F598        F  0.31475703  0.32826766  0.06851550    -0.22900
H599        H  0.34932059  0.36972838  0.06848404     0.18300
C600        C  0.37648284  0.41629839  0.00772082     0.26300
C601        C  0.39678541  0.43663971  0.00540409    -0.11400
C602        C  0.42007501  0.43662452  0.02280418    -0.25500
C603        C  0.42149768  0.41697012  0.04421980     0.37200
C604        C  0.40130472  0.39612953  0.04620480    -0.27100
F605        F  0.35455070  0.41689824  0.99015400    -0.19200
H606        H  0.39468267  0.45203064  0.98929492     0.16500
F607        F  0.44327975  0.41670134  0.06194949    -0.22900
H608        H  0.40369738  0.38008191  0.06160100     0.18300
C609        C  0.58922903  0.62726081  0.97212177    -0.27000
C610        C  0.61622716  0.61963805  0.96441947     0.06700
C611        C  0.62128639  0.59187162  0.95720173     0.26300
C612        C  0.60011182  0.57215054  0.95891672    -0.11400
C613        C  0.57330436  0.57961075  0.96753069    -0.25400
C614        C  0.56796620  0.60767954  0.97346975     0.37100
C615        C  0.63918925  0.64024325  0.96611705     0.06700
F616        F  0.64677045  0.58368966  0.94865167    -0.19200
H617        H  0.60490246  0.55085709  0.95394077     0.16500
F618        F  0.54252439  0.61621090  0.98181856    -0.22900
H619        H  0.58472603  0.64831047  0.97826182     0.18300
C620        C  0.63574427  0.66760215  0.95677153     0.26300
C621        C  0.65639699  0.68741130  0.96143830    -0.11400
C622        C  0.68113367  0.68036364  0.97506444    -0.25500
C623        C  0.68506962  0.65272359  0.98330098     0.37200
C624        C  0.66423296  0.63308884  0.97909181    -0.27100
F625        F  0.61237944  0.67527700  0.94319664    -0.19200
H626        H  0.65288587  0.70841908  0.95459195     0.16500
F627        F  0.70842688  0.64485104  0.99678124    -0.22900
H628        H  0.66733570  0.61242219  0.98704949     0.18300
C629        C  0.61962012  0.77799780  0.16787150    -0.27000
C630        C  0.61262884  0.79018435  0.14248909     0.06700
C631        C  0.58505250  0.79858457  0.13811682     0.26300
C632        C  0.56472396  0.79337633  0.15810103    -0.11400
C633        C  0.57149411  0.78006053  0.18301339    -0.25400
C634        C  0.59943111  0.77309862  0.18799367     0.37100
C635        C  0.63346617  0.79118413  0.11982799     0.06700
F636        F  0.57768676  0.81146544  0.11432595    -0.19200
H637        H  0.54352721  0.79937031  0.15385638     0.16500
F638        F  0.60710776  0.76003603  0.21159503    -0.22900
H639        H  0.64058403  0.77096193  0.17165453     0.18300
C640        C  0.66078341  0.80019223  0.12462306     0.26300
C641        C  0.68102406  0.79719443  0.10408936    -0.11400
C642        C  0.67444294  0.78543680  0.07828463    -0.25500
C643        C  0.64680930  0.77765000  0.07310464     0.37200
C644        C  0.62669381  0.78041981  0.09370199    -0.27100
F645        F  0.66799677  0.81153174  0.14927861    -0.19200
H646        H  0.70205325  0.80361320  0.10859739     0.16500
F647        F  0.63947960  0.76569433  0.04878341    -0.22900
H648        H  0.60597611  0.77283515  0.08960462     0.18300
C649        C  0.79941735  0.63716809  0.09491263    -0.27000
C650        C  0.78911143  0.64063797  0.12183961     0.06700
C651        C  0.77793908  0.66637590  0.12946836     0.26300
C652        C  0.77572883  0.68760859  0.11003305    -0.11400
C653        C  0.78434736  0.68356387  0.08255833    -0.25400
C654        C  0.79706300  0.65834201  0.07539775     0.37100
C655        C  0.78791715  0.61681021  0.14109047     0.06700
F656        F  0.76736913  0.67041445  0.15515454    -0.19200
H657        H  0.76581572  0.70672089  0.11616757     0.16500
F658        F  0.80664429  0.65383070  0.04940534    -0.22900
H659        H  0.80860844  0.61769852  0.08876855     0.18300
C660        C  0.77559647  0.59182652  0.13270622     0.26300
C661        C  0.77238660  0.57014637  0.15146131    -0.11400
C662        C  0.78099166  0.57298450  0.17907077    -0.25500
C663        C  0.79398325  0.59775759  0.18729396     0.37200
C664        C  0.79747011  0.61936035  0.16839904    -0.27100
F665        F  0.76518714  0.58891859  0.10679227    -0.19200
H666        H  0.76197961  0.55152023  0.14462002     0.16500
F667        F  0.80308873  0.60125563  0.21361678    -0.22900
H668        H  0.80727436  0.63831617  0.17521840     0.18300
C669        C  0.85801299  0.69595928  0.91097744    -0.27000
C670        C  0.86159822  0.71560980  0.88990940     0.06700
C671        C  0.84544917  0.73974000  0.89025098     0.26300
C672        C  0.82646486  0.74429565  0.91142170    -0.11400
C673        C  0.82294066  0.72492275  0.93272564    -0.25400
C674        C  0.83867811  0.70043203  0.93218579     0.37100
C675        C  0.88300666  0.71206203  0.86825974     0.06700
F676        F  0.84883030  0.75951922  0.87067250    -0.19200
H677        H  0.81458909  0.76329904  0.91123747     0.16500
F678        F  0.83618184  0.68141131  0.95260566    -0.22900
H679        H  0.87035586  0.67726080  0.91108297     0.18300
C680        C  0.91104518  0.70912896  0.87540560     0.26300
C681        C  0.93154176  0.71094118  0.85505241    -0.11400
C682        C  0.92450673  0.71572899  0.82720201    -0.25500
C683        C  0.89622581  0.71681227  0.81993270     0.37200
C684        C  0.87581067  0.71498376  0.84031359    -0.27100
F685        F  0.91874068  0.70656751  0.90226960    -0.19200
H686        H  0.95304168  0.70985718  0.86137220     0.16500
F687        F  0.88815881  0.72119405  0.79342253    -0.22900
H688        H  0.85425545  0.71705107  0.83439743     0.18300
C689        C  0.52056443  0.33824145  0.86932874    -0.27000
C690        C  0.53833065  0.36075124  0.86504877     0.06700
C691        C  0.55659153  0.36013154  0.84235898     0.26300
C692        C  0.55532276  0.33831480  0.82312631    -0.11400
C693        C  0.53577633  0.31702330  0.82630757    -0.25400
C694        C  0.51921737  0.31665780  0.85024713     0.37100
C695        C  0.53530574  0.38561311  0.88288930     0.06700
F696        F  0.57410267  0.38154011  0.83769439    -0.19200
H697        H  0.56823884  0.33905897  0.80483786     0.16500
F698        F  0.50080853  0.29591385  0.85462637    -0.22900
H699        H  0.50675234  0.33799233  0.88698409     0.18300
C700        C  0.50914389  0.39800008  0.88573061     0.26300
C701        C  0.50524611  0.41991231  0.90405005    -0.11400
C702        C  0.52726908  0.43022641  0.92011602    -0.25500
C703        C  0.55379424  0.41852981  0.91652094     0.37200
C704        C  0.55770958  0.39641005  0.89800550    -0.27100
F705        F  0.48719082  0.38881032  0.87075177    -0.19200
H706        H  0.48465809  0.42863025  0.90581372     0.16500
F707        F  0.57571167  0.42778577  0.93144418    -0.22900
H708        H  0.57804524  0.38716420  0.89608571     0.18300
C709        C  0.45755036  0.16502721  0.62451013    -0.27000
C710        C  0.46551721  0.13743461  0.62919620     0.06700
C711        C  0.47695508  0.13055374  0.65505414     0.26300
C712        C  0.48014930  0.15063824  0.67559440    -0.11400
C713        C  0.47274566  0.17832909  0.67084630    -0.25400
C714        C  0.46117569  0.18532037  0.64501874     0.37100
C715        C  0.46395323  0.11636363  0.60662365     0.06700
F716        F  0.48666318  0.10472243  0.66003052    -0.19200
H717        H  0.48959156  0.14460375  0.69497389     0.16500
F718        F  0.45345628  0.21169922  0.63948280    -0.22900
H719        H  0.44875728  0.17094265  0.60479486     0.18300
C720        C  0.45419199  0.08938500  0.61165798     0.26300
C721        C  0.45680208  0.06873741  0.59146894    -0.11400
C722        C  0.46846137  0.07461931  0.56552775    -0.25500
C723        C  0.47635305  0.10211607  0.55980724     0.37200
C724        C  0.47421861  0.12260486  0.58019421    -0.27100
F725        F  0.44231573  0.08287307  0.63621560    -0.19200
H726        H  0.45003759  0.04796950  0.59631331     0.16500
F727        F  0.48770104  0.10900327  0.53509124    -0.22900
H728        H  0.48181933  0.14315804  0.57566405     0.18300
C729        C  0.40779544  0.18851720  0.85305612    -0.27000
C730        C  0.38829851  0.20940581  0.85851708     0.06700
C731        C  0.38765838  0.23287333  0.84153270     0.26300
C732        C  0.40699169  0.23613386  0.82053616    -0.11400
C733        C  0.42757790  0.21617663  0.81583978    -0.25400
C734        C  0.42740318  0.19182593  0.83178371     0.37100
C735        C  0.36998800  0.20862396  0.88306124     0.06700
F736        F  0.36872072  0.25317265  0.84583569    -0.19200
H737        H  0.40629755  0.25489419  0.80835147     0.16500
F738        F  0.44705314  0.17214391  0.82797694    -0.22900
H739        H  0.40860792  0.17030604  0.86602336     0.18300
C740        C  0.34905355  0.18865982  0.88615411     0.26300
C741        C  0.32867422  0.19193253  0.90670103    -0.11400
C742        C  0.32899301  0.21523043  0.92414274    -0.25500
C743        C  0.35122785  0.23397648  0.92211799     0.37200
C744        C  0.37144138  0.23056298  0.90192046    -0.27100
F745        F  0.34728884  0.16713037  0.86824682    -0.19200
H746        H  0.31190513  0.17714406  0.90798016     0.16500
F747        F  0.35307737  0.25620084  0.93919908    -0.22900
H748        H  0.38767806  0.24591179  0.90013030     0.18300
C749        C  0.39572456  0.34972125  0.69548307    -0.27000
C750        C  0.39107657  0.36809519  0.71757499     0.06700
C751        C  0.40885617  0.36718400  0.74054925     0.26300
C752        C  0.42961425  0.34732010  0.74219389    -0.11400
C753        C  0.43348034  0.32783614  0.72096441    -0.25400
C754        C  0.41684537  0.32971324  0.69708004     0.37100
C755        C  0.36661981  0.38673667  0.71832910     0.06700
F756        F  0.40573772  0.38522732  0.76185238    -0.19200
H757        H  0.44238342  0.34685200  0.76060945     0.16500
F758        F  0.41993149  0.31139468  0.67604932    -0.22900
H759        H  0.38225374  0.35006829  0.67758201     0.18300
C760        C  0.36118452  0.40623971  0.69745105     0.26300
C761        C  0.33981444  0.42573171  0.70087459    -0.11400
C762        C  0.32384594  0.42606913  0.72521917    -0.25500
C763        C  0.32850397  0.40556172  0.74526329     0.37200
C764        C  0.34943716  0.38611969  0.74168770    -0.27100
F765        F  0.37734651  0.40734630  0.67454066    -0.19200
H766        H  0.33650380  0.44120699  0.68507093     0.16500
F767        F  0.31288110  0.40433712  0.76856019    -0.22900
H768        H  0.35274885  0.37084061  0.75769682     0.18300
C769        C  0.10313908  0.44137756  0.60300045    -0.27000
C770        C  0.11078711  0.46289648  0.62096955     0.06700
C771        C  0.09791193  0.48873301  0.61827635     0.26300
C772        C  0.07780210  0.49299924  0.59806986    -0.11400
C773        C  0.06991505  0.47166392  0.57988824    -0.25400
C774        C  0.08267304  0.44557956  0.58272830     0.37100
C775        C  0.13242886  0.45915720  0.64237984     0.06700
F776        F  0.10537816  0.51018608  0.63480047    -0.19200
H777        H  0.06856676  0.51333192  0.59655826     0.16500
F778        F  0.07583746  0.42434529  0.56570153    -0.22900
H779        H  0.11294547  0.42133293  0.60476698     0.18300
C780        C  0.12613237  0.46411518  0.67027054     0.26300
C781        C  0.14728123  0.46635535  0.68983529    -0.11400
C782        C  0.17525884  0.46391217  0.68203815    -0.25500
C783        C  0.18139639  0.45675782  0.65438799     0.37200
C784        C  0.16007207  0.45440210  0.63478854    -0.27100
F785        F  0.09951470  0.46817726  0.67833449    -0.19200
H786        H  0.14168711  0.47145157  0.71090882     0.16500
F787        F  0.20796647  0.45327126  0.64592973    -0.22900
H788        H  0.16528462  0.45045530  0.61336737     0.18300
C789        C  0.90779691  0.53574835  0.38313346    -0.27000
C790        C  0.87984537  0.53552264  0.39109889     0.06700
C791        C  0.87340927  0.53437473  0.41944347     0.26300
C792        C  0.89445595  0.53188180  0.43916864    -0.11400
C793        C  0.92244096  0.53054096  0.43117921    -0.25400
C794        C  0.92891675  0.53339487  0.40285007     0.37100
C795        C  0.85764003  0.53350409  0.36984254     0.06700
F796        F  0.84666409  0.53506857  0.42805270    -0.19200
H797        H  0.88868556  0.53015168  0.46073052     0.16500
F798        F  0.95555053  0.53277240  0.39391592    -0.22900
H799        H  0.91331524  0.53642135  0.36143963     0.18300
C800        C  0.85685917  0.55107555  0.34664045     0.26300
C801        C  0.83669722  0.54729673  0.32604428    -0.11400
C802        C  0.81741594  0.52564939  0.32800135    -0.25500
C803        C  0.81791220  0.50852509  0.35146876     0.37200
C804        C  0.83775564  0.51247441  0.37206116    -0.27100
F805        F  0.87562544  0.57174804  0.34382538    -0.19200
H806        H  0.83675975  0.56067354  0.30810503     0.16500
F807        F  0.79921457  0.48779931  0.35448216    -0.22900
H808        H  0.83808605  0.49842334  0.38947563     0.18300
C809        C  0.12183099  0.66308569  0.47660894    -0.27000
C810        C  0.12836750  0.64004310  0.46031356     0.06700
C811        C  0.15331225  0.63963639  0.44541279     0.26300
C812        C  0.17212358  0.66157886  0.44800025    -0.11400
C813        C  0.16635462  0.68377377  0.46585394    -0.25400
C814        C  0.14065230  0.68474722  0.47948330     0.37100
C815        C  0.11088486  0.61520693  0.46260259     0.06700
F816        F  0.16030991  0.61718919  0.43009314    -0.19200
H817        H  0.19197502  0.66028486  0.43766232     0.16500
F818        F  0.13426582  0.70610679  0.49655885    -0.22900
H819        H  0.10268807  0.66357786  0.48828466     0.18300
C820        C  0.11157543  0.59993250  0.48716180     0.26300
C821        C  0.09270978  0.57864131  0.49145881    -0.11400
C822        C  0.07260789  0.57216352  0.47141364    -0.25500
C823        C  0.07282322  0.58660595  0.44612408     0.37200
C824        C  0.09188703  0.60807655  0.44183462    -0.27100
F825        F  0.12999097  0.60628086  0.50742379    -0.19200
H826        H  0.09340067  0.56769261  0.51095503     0.16500
F827        F  0.05382041  0.58102941  0.42620944    -0.22900
H828        H  0.09113690  0.61982019  0.42281702     0.18300
C829        C  0.94160153  0.65603372  0.64508401    -0.27000
C830        C  0.96337899  0.63880961  0.63639763     0.06700
C831        C  0.98871719  0.63985157  0.65060694     0.26300
C832        C  0.99257898  0.65838730  0.67228904    -0.11400
C833        C  0.97133069  0.67646493  0.68057065    -0.25400
C834        C  0.94548435  0.67479304  0.66702974     0.37100
C835        C  0.96087358  0.62052203  0.61186001     0.06700
F836        F  0.00993471  0.62289999  0.64337866    -0.19200
H837        H  0.01255684  0.65868212  0.68249280     0.16500
F838        F  0.92437008  0.69182199  0.67427307    -0.22900
H839        H  0.92190946  0.65551088  0.63435884     0.18300
C840        C  0.94206809  0.59831433  0.61103127     0.26300
C841        C  0.94433277  0.57800513  0.59029253    -0.11400
C842        C  0.96545662  0.57964725  0.57035120    -0.25500
C843        C  0.98260786  0.60318599  0.56999646     0.37200
C844        C  0.98024185  0.62332251  0.59047623    -0.27100
F845        F  0.92299781  0.59515987  0.63136904    -0.19200
H846        H  0.93082972  0.56015798  0.59091914     0.16500
F847        F  0.00253812  0.60620801  0.55043160    -0.22900
H848        H  0.99459318  0.64053465  0.59047005     0.18300
C849        C  0.34403085  0.05132455  0.35690731    -0.27000
C850        C  0.36815342  0.03512498  0.35540851     0.06700
C851        C  0.37303383  0.01913575  0.33161354     0.26300
C852        C  0.35307147  0.01744203  0.31096034    -0.11400
C853        C  0.32809810  0.03199657  0.31329141    -0.25400
C854        C  0.32407477  0.04990449  0.33584683     0.37100
C855        C  0.38648628  0.03176524  0.37969810     0.06700
F856        F  0.39659382  0.00403479  0.32900094    -0.19200
H857        H  0.35665144  0.00377830  0.29353257     0.16500
F858        F  0.29998980  0.06407725  0.33866998    -0.22900
H859        H  0.33986673  0.06368871  0.37513117     0.18300
C860        C  0.39898936  0.05432035  0.39311425     0.26300
C861        C  0.41785185  0.04981369  0.41475194    -0.11400
C862        C  0.42430065  0.02277919  0.42337428    -0.25500
C863        C  0.41070623  0.00038884  0.41044684     0.37200
C864        C  0.39203923  0.00497665  0.38907537    -0.27100
F865        F  0.39382615  0.08051764  0.38461558    -0.19200
H866        H  0.42783053  0.06742564  0.42432705     0.16500
F867        F  0.41580315  0.97380833  0.41780143    -0.22900
H868        H  0.38212094  0.98734145  0.37942827     0.18300
C869        C  0.28622280  0.12527911  0.08128039    -0.27000
C870        C  0.29674163  0.13297178  0.10725954     0.06700
C871        C  0.30602770  0.16034466  0.11093210     0.26300
C872        C  0.30209832  0.18005793  0.09005598    -0.11400
C873        C  0.28960819  0.17276025  0.06478913    -0.25400
C874        C  0.28292775  0.14474088  0.06019789     0.37100
C875        C  0.29550894  0.11287085  0.13065219     0.06700
F876        F  0.31855929  0.16816376  0.13481270    -0.19200
H877        H  0.30827281  0.20122128  0.09393763     0.16500
F878        F  0.27158063  0.13625739  0.03595198    -0.22900
H879        H  0.27913732  0.10435443  0.07766254     0.18300
C880        C  0.28415654  0.12056821  0.15637533     0.26300
C881        C  0.27941895  0.10073909  0.17687261    -0.11400
C882        C  0.28525560  0.07266261  0.17213587    -0.25500
C883        C  0.29747925  0.06506297  0.14679539     0.37200
C884        C  0.30262438  0.08498440  0.12642285    -0.27100
F885        F  0.27567777  0.14688458  0.16110504    -0.19200
H886        H  0.26981785  0.10725437  0.19603015     0.16500
F887        F  0.30411122  0.03833376  0.14146070    -0.22900
H888        H  0.31154342  0.07845481  0.10694624     0.18300
C889        C  0.20648278  0.84090756  0.38180922    -0.27000
C890        C  0.21477155  0.86803412  0.38787058     0.06700
C891        C  0.22283472  0.87459186  0.41504183     0.26300
C892        C  0.22381396  0.85410303  0.43534661    -0.11400
C893        C  0.21712289  0.82653893  0.42900072    -0.25400
C894        C  0.20780093  0.82024608  0.40205306     0.37100
C895        C  0.21775120  0.88865680  0.36536799     0.06700
F896        F  0.23058967  0.90071547  0.42173840    -0.19200
H897        H  0.23107947  0.85967138  0.45581328     0.16500
F898        F  0.20066413  0.79404456  0.39500468    -0.22900
H899        H  0.20023270  0.83543463  0.36098341     0.18300
C900        C  0.24369890  0.90068712  0.36036116     0.26300
C901        C  0.24705728  0.91968408  0.33901396    -0.11400
C902        C  0.22471610  0.92730357  0.32191647    -0.25500
C903        C  0.19861027  0.91518678  0.32685550     0.37200
C904        C  0.19529356  0.89586100  0.34830736    -0.27100
F905        F  0.26611389  0.89347095  0.37569716    -0.19200
H906        H  0.26746597  0.92844294  0.33589972     0.16500
F907        F  0.17648382  0.92157619  0.31079650    -0.22900
H908        H  0.17515616  0.88660017  0.35172147     0.18300
C909        C  0.38698492  0.85136604  0.23710371    -0.27000
C910        C  0.38165892  0.85986414  0.20996769     0.06700
C911        C  0.39526848  0.84637766  0.18806032     0.26300
C912        C  0.41472477  0.82541262  0.19361224    -0.11400
C913        C  0.42073584  0.81759013  0.22104715    -0.25400
C914        C  0.40616975  0.83071229  0.24270879     0.37100
C915        C  0.36340068  0.88421179  0.20597277     0.06700
F916        F  0.39064325  0.85421042  0.16154158    -0.19200
H917        H  0.42544858  0.81570319  0.17650421     0.16500
F918        F  0.41077456  0.82423953  0.26961639    -0.22900
H919        H  0.37654426  0.86130687  0.25428324     0.18300
C920        C  0.33836951  0.88274913  0.19105321     0.26300
C921        C  0.31888801  0.90432417  0.19305344    -0.11400
C922        C  0.32417319  0.92722019  0.21019281    -0.25500
C923        C  0.34996940  0.92934378  0.22343858     0.37200
C924        C  0.36936458  0.90821951  0.22111829    -0.27100
F925        F  0.33185851  0.85969745  0.17643367    -0.19200
H926        H  0.29904238  0.90227564  0.18281826     0.16500
F927        F  0.35592643  0.95139934  0.23978205    -0.22900
H928        H  0.38859051  0.90989023  0.23255914     0.18300
C929        C  0.87558365  0.91108022  0.72527030    -0.27000
C930        C  0.87232187  0.88810502  0.70789265     0.06700
C931        C  0.84842016  0.88632008  0.69120349     0.26300
C932        C  0.82749882  0.90641122  0.69327886    -0.11400
C933        C  0.83006280  0.92824032  0.71225234    -0.25400
C934        C  0.85477747  0.93091192  0.72746781     0.37100
C935        C  0.89253071  0.86502279  0.70987069     0.06700
F936        F  0.84497383  0.86473552  0.67359708    -0.19200
H937        H  0.80866461  0.90400902  0.68131827     0.16500
F938        F  0.85833612  0.95222912  0.74540824    -0.22900
H939        H  0.89367054  0.91291764  0.73842872     0.18300
C940        C  0.92122418  0.87002659  0.70917426     0.26300
C941        C  0.93999172  0.84885343  0.71521248    -0.11400
C942        C  0.93065688  0.82222115  0.72217737    -0.25500
C943        C  0.90187568  0.81707296  0.72211754     0.37200
C944        C  0.88315021  0.83826848  0.71596072    -0.27100
F945        F  0.93112049  0.89555008  0.70310586    -0.19200
H946        H  0.96193048  0.85352680  0.71492543     0.16500
F947        F  0.89161691  0.79196639  0.72922986    -0.22900
H948        H  0.86114613  0.83405890  0.71725443     0.18300
C949        C  0.63401707  0.08437694  0.79549656    -0.27000
C950        C  0.63911215  0.11151050  0.78635545     0.06700
C951        C  0.66537735  0.11771649  0.77535907     0.26300
C952        C  0.68542159  0.09707555  0.77250241    -0.11400
C953        C  0.67981164  0.06959594  0.78009108    -0.25400
C954        C  0.65398810  0.06355861  0.79222248     0.37100
C955        C  0.61656034  0.13265614  0.78607966     0.06700
F956        F  0.67120210  0.14334992  0.76563132    -0.19200
H957        H  0.70499061  0.10247065  0.76301498     0.16500
F958        F  0.64779087  0.03751712  0.80052739    -0.22900
H959        H  0.61426115  0.07910939  0.80465442     0.18300
C960        C  0.59009120  0.12607813  0.77573352     0.26300
C961        C  0.57014514  0.14672060  0.77214402    -0.11400
C962        C  0.57608178  0.17449402  0.77836758    -0.25500
C963        C  0.60210929  0.18093673  0.78985953     0.37200
C964        C  0.62194324  0.16017007  0.79388810    -0.27100
F965        F  0.58394991  0.10000368  0.76739130    -0.19200
H966        H  0.55035958  0.14104095  0.76322710     0.16500
F967        F  0.60859491  0.20730796  0.79690038    -0.22900
H968        H  0.64185219  0.16575962  0.80256831     0.18300
C969        C  0.58305178  0.95909332  0.62012875    -0.27000
C970        C  0.61147404  0.95950701  0.61390773     0.06700
C971        C  0.61959461  0.96189334  0.58606129     0.26300
C972        C  0.59969698  0.96529444  0.56527507    -0.11400
C973        C  0.57128480  0.96657176  0.57170741    -0.25400
C974        C  0.56316356  0.96277737  0.59943647     0.37100
C975        C  0.63232089  0.95973201  0.63665581     0.06700
F976        F  0.64679066  0.96261042  0.57901640    -0.19200
H977        H  0.60671144  0.96802777  0.54419665     0.16500
F978        F  0.53606732  0.96338999  0.60685786    -0.22900
H979        H  0.57618651  0.95660400  0.64128738     0.18300
C980        C  0.62887682  0.97748647  0.65950559     0.26300
C981        C  0.64916424  0.97909383  0.68002231    -0.11400
C982        C  0.67370435  0.96370966  0.67795539    -0.25500
C983        C  0.67706223  0.94552732  0.65548775     0.37200
C984        C  0.65638535  0.94336885  0.63520724    -0.27100
F985        F  0.60667423  0.99460684  0.66123817    -0.19200
H986        H  0.64632029  0.99361034  0.69685587     0.16500
F987        F  0.70030443  0.92993514  0.65311572    -0.22900
H988        H  0.65936677  0.92917569  0.61814206     0.18300
C989        C  0.74218147  0.88159920  0.84760973    -0.27000
C990        C  0.71858324  0.88285804  0.86439119     0.06700
C991        C  0.69729467  0.90147471  0.85762533     0.26300
C992        C  0.70043956  0.91960297  0.83519362    -0.11400
C993        C  0.72485324  0.91937872  0.81930569    -0.25400
C994        C  0.74532504  0.89945259  0.82526869     0.37100
C995        C  0.71804223  0.86628207  0.89008525     0.06700
F996        F  0.67429889  0.90323037  0.87363349    -0.19200
H997        H  0.68436312  0.93466388  0.83108031     0.16500
F998        F  0.76879997  0.89755728  0.80993092    -0.22900
H999        H  0.75865404  0.86712794  0.85233051     0.18300
C1000       C  0.69839906  0.84529580  0.89444922     0.26300
C1001       C  0.70096506  0.82753180  0.91726097    -0.11400
C1002       C  0.72323122  0.83042788  0.93582284    -0.25500
C1003       C  0.74184011  0.85255502  0.93213939     0.37200
C1004       C  0.73924311  0.87012560  0.90949553    -0.27100
F1005       F  0.67787760  0.84090949  0.87578258    -0.19200
H1006       H  0.68645533  0.81062019  0.91954426     0.16500
F1007       F  0.76308733  0.85682669  0.95004372    -0.22900
H1008       H  0.75439237  0.88639678  0.90661364     0.18300
C1009       C  0.63184773  0.15945373  0.45118609    -0.27000
C1010       C  0.63694949  0.13184590  0.45858128     0.06700
C1011       C  0.66376098  0.12450170  0.46739536     0.26300
C1012       C  0.68448164  0.14456861  0.46980599    -0.11400
C1013       C  0.67895032  0.17248266  0.46393635    -0.25400
C1014       C  0.65243855  0.17962329  0.45401491     0.37100
C1015       C  0.61395070  0.11129258  0.45883839     0.06700
F1016       F  0.66957097  0.09825953  0.47536444    -0.19200
H1017       H  0.70456281  0.13837036  0.47762833     0.16500
F1018       F  0.64612033  0.20615990  0.44755280    -0.22900
H1019       H  0.61161094  0.16558090  0.44371601     0.18300
C1020       C  0.58823078  0.11790072  0.47092203     0.26300
C1021       C  0.56748280  0.09790386  0.47312939    -0.11400
C1022       C  0.57205261  0.07072531  0.46403505    -0.25500
C1023       C  0.59740332  0.06421968  0.45126348     0.37200
C1024       C  0.61797198  0.08442590  0.44843651    -0.27100
F1025       F  0.58366686  0.14318877  0.48219965    -0.19200
H1026       H  0.54829388  0.10335226  0.48339058     0.16500
F1027       F  0.60239296  0.03830957  0.44171835    -0.22900
H1028       H  0.63730386  0.07890873  0.43851333     0.18300
C1029       C  0.86945502  0.34231710  0.51145931    -0.27000
C1030       C  0.87011297  0.35688704  0.53647123     0.06700
C1031       C  0.85051421  0.35056223  0.55701746     0.26300
C1032       C  0.83032578  0.33017926  0.55223598    -0.11400
C1033       C  0.82910312  0.31619717  0.52672823    -0.25400
C1034       C  0.84926157  0.32233422  0.50649067     0.37100
C1035       C  0.89054343  0.37952372  0.53978006     0.06700
F1036       F  0.85089895  0.36411679  0.58158467    -0.19200
H1037       H  0.81516269  0.32591882  0.56817760     0.16500
F1038       F  0.84942448  0.30926722  0.48163215    -0.22900
H1039       H  0.88428897  0.34700647  0.49530731     0.18300
C1040       C  0.91895621  0.37427204  0.53652215     0.26300
C1041       C  0.93775826  0.39613261  0.53445464    -0.11400
C1042       C  0.92866323  0.42377916  0.53522710    -0.25500
C1043       C  0.90027221  0.42894371  0.54000207     0.37200
C1044       C  0.88150469  0.40695676  0.54233244    -0.27100
F1045       F  0.92838090  0.34793630  0.53431711    -0.19200
H1046       H  0.95939218  0.39128705  0.53103233     0.16500
F1047       F  0.89033614  0.45514206  0.54118576    -0.22900
H1048       H  0.85962432  0.41140147  0.54461271     0.18300
C1049       C  0.69063296  0.34760322  0.39411534    -0.27000
C1050       C  0.71328472  0.36225919  0.38334125     0.06700
C1051       C  0.73958902  0.35837899  0.39504642     0.26300
C1052       C  0.74350219  0.33897999  0.41583417    -0.11400
C1053       C  0.72133714  0.32289524  0.42567251    -0.25400
C1054       C  0.69454950  0.32799611  0.41517635     0.37100
C1055       C  0.71041373  0.38055855  0.35901684     0.06700
F1056       F  0.76172960  0.37309070  0.38596309    -0.19200
H1057       H  0.76429461  0.33620012  0.42380982     0.16500
F1058       F  0.67238773  0.31355344  0.42453662    -0.22900
H1059       H  0.67012525  0.35063430  0.38552764     0.18300
C1060       C  0.72695463  0.37573099  0.33561461     0.26300
C1061       C  0.72870426  0.39547319  0.31479432    -0.11400
C1062       C  0.71372516  0.42023426  0.31659979    -0.25500
C1063       C  0.69542419  0.42421278  0.33888315     0.37200
C1064       C  0.69384143  0.40440753  0.36003339    -0.27100
F1065       F  0.74254714  0.35246475  0.33360479    -0.19200
H1066       H  0.74279382  0.39194096  0.29770191     0.16500
F1067       F  0.68101156  0.44814892  0.34140486    -0.22900
H1068       H  0.68101015  0.40845484  0.37795822     0.18300
C1069       C  0.62890451  0.27782131  0.58349165    -0.27000
C1070       C  0.63638080  0.29022896  0.60868675     0.06700
C1071       C  0.66387220  0.29935865  0.61216778     0.26300
C1072       C  0.68361817  0.29473217  0.59147821    -0.11400
C1073       C  0.67635555  0.28131080  0.56671900    -0.25400
C1074       C  0.64849723  0.27356270  0.56265158     0.37100
C1075       C  0.61621725  0.29076784  0.63199556     0.06700
F1076       F  0.67177892  0.31239167  0.63574739    -0.19200
H1077       H  0.70478362  0.30124961  0.59506816     0.16500
F1078       F  0.64038748  0.26033165  0.53924637    -0.22900
H1079       H  0.60807766  0.27010214  0.58037003     0.18300
C1080       C  0.58824668  0.29795491  0.62784478     0.26300
C1081       C  0.56881297  0.29422721  0.64901334    -0.11400
C1082       C  0.57684987  0.28361571  0.67486234    -0.25500
C1083       C  0.60513175  0.27799005  0.67945416     0.37200
C1084       C  0.62440904  0.28133569  0.65819372    -0.27100
F1085       F  0.57959615  0.30815969  0.60319020    -0.19200
H1086       H  0.54729416  0.29910405  0.64493588     0.16500
F1087       F  0.61408050  0.26763189  0.70393358    -0.22900
H1088       H  0.64565272  0.27516608  0.66191019     0.18300
C1089       C  0.77356768  0.15886867  0.61982614    -0.27000
C1090       C  0.78387836  0.13280340  0.61224319     0.06700
C1091       C  0.79229444  0.12840645  0.58477384     0.26300
C1092       C  0.78952785  0.14937199  0.56515177    -0.11400
C1093       C  0.77845402  0.17523715  0.57245180    -0.25400
C1094       C  0.77085868  0.17993076  0.60022066     0.37100
C1095       C  0.78365510  0.10971899  0.63239724     0.06700
F1096       F  0.80298060  0.10370116  0.57683771    -0.19200
H1097       H  0.79571094  0.14516857  0.54403643     0.16500
F1098       F  0.75944083  0.20429292  0.60821828    -0.22900
H1099       H  0.76650664  0.16258981  0.64076169     0.18300
C1100       C  0.79444494  0.11292617  0.65922271     0.26300
C1101       C  0.79186470  0.09160856  0.67855942    -0.11400
C1102       C  0.77865804  0.06666503  0.67149058    -0.25500
C1103       C  0.76869102  0.06319678  0.64435018     0.37200
C1104       C  0.77109252  0.08456657  0.62515457    -0.27100
F1105       F  0.80738106  0.13667185  0.66675306    -0.19200
H1106       H  0.79986234  0.09478926  0.69925364     0.16500
F1107       F  0.75520753  0.03979317  0.63670624    -0.22900
H1108       H  0.76217764  0.08178626  0.60477958     0.18300
C1109       C  0.12139626  0.16285709  0.29925083    -0.27000
C1110       C  0.11718460  0.13675742  0.28706783     0.06700
C1111       C  0.09246761  0.13203977  0.27235649     0.26300
C1112       C  0.07276469  0.15300218  0.26961440    -0.11400
C1113       C  0.07739050  0.17938253  0.28088534    -0.25400
C1114       C  0.10189015  0.18407866  0.29597256     0.37100
C1115       C  0.13922992  0.11518670  0.28782879     0.06700
F1116       F  0.08797668  0.10765437  0.25920032    -0.19200
H1117       H  0.05432502  0.14887883  0.25754869     0.16500
F1118       F  0.10705699  0.20913371  0.30750768    -0.22900
H1119       H  0.14003147  0.16696670  0.31100117     0.18300
C1120       C  0.16675547  0.12180597  0.28102115     0.26300
C1121       C  0.18649619  0.10094810  0.27779898    -0.11400
C1122       C  0.17935526  0.07292936  0.28096218    -0.25500
C1123       C  0.15223085  0.06640419  0.28949295     0.37200
C1124       C  0.13250013  0.08737529  0.29299647    -0.27100
F1125       F  0.17427240  0.14825372  0.27554589    -0.19200
H1126       H  0.20716147  0.10680480  0.27141447     0.16500
F1127       F  0.14445285  0.03980306  0.29372562    -0.22900
H1128       H  0.11164574  0.08177282  0.29898790     0.18300
C1129       C  0.84838814  0.38555942  0.23262651    -0.27000
C1130       C  0.86953125  0.39111041  0.21363701     0.06700
C1131       C  0.86681606  0.41379108  0.19567601     0.26300
C1132       C  0.84371388  0.43139869  0.19781954    -0.11400
C1133       C  0.82334113  0.42657186  0.21801283    -0.25400
C1134       C  0.82558083  0.40299345  0.23486288     0.37100
C1135       C  0.89487309  0.37393494  0.21470712     0.06700
F1136       F  0.88716812  0.41976389  0.17730714    -0.19200
H1137       H  0.84250869  0.44955008  0.18479577     0.16500
F1138       F  0.80596336  0.39715407  0.25409668    -0.22900
H1139       H  0.84999925  0.36799026  0.24640920     0.18300
C1140       C  0.91037717  0.37316348  0.23924117     0.26300
C1141       C  0.93105044  0.35340023  0.24278398    -0.11400
C1142       C  0.93686227  0.33393410  0.22196563    -0.25500
C1143       C  0.92255574  0.33581084  0.19663573     0.37200
C1144       C  0.90161096  0.35568892  0.19312714    -0.27100
F1145       F  0.90473531  0.39092946  0.26025591    -0.19200
H1146       H  0.94208835  0.35288586  0.26229027     0.16500
F1147       F  0.92753816  0.31744941  0.17601428    -0.22900
H1148       H  0.88970442  0.35591831  0.17413963     0.18300
C1149       C  0.09662669  0.29833796  0.13289366    -0.27000
C1150       C  0.12393883  0.28940263  0.13785585     0.06700
C1151       C  0.13070394  0.28005460  0.16462043     0.26300
C1152       C  0.11031286  0.27820543  0.18511596    -0.11400
C1153       C  0.08258823  0.28511884  0.17945665    -0.25400
C1154       C  0.07609008  0.29585707  0.15319428     0.37100
C1155       C  0.14441496  0.28761515  0.11464704     0.06700
F1156       F  0.15658444  0.27094325  0.17065022    -0.19200
H1157       H  0.11605961  0.26994454  0.20510271     0.16500
F1158       F  0.04980555  0.30350748  0.14684327    -0.22900
H1159       H  0.09090368  0.30663786  0.11292770     0.18300
C1160       C  0.13632401  0.27735767  0.08856141     0.26300
C1161       C  0.15584138  0.27335188  0.06762819    -0.11400
C1162       C  0.18407712  0.27879056  0.07210499    -0.25500
C1163       C  0.19222373  0.28969749  0.09787465     0.37200
C1164       C  0.17252047  0.29438179  0.11870352    -0.27100
F1165       F  0.10977286  0.26961284  0.08358518    -0.19200
H1166       H  0.14886666  0.26478492  0.04813440     0.16500
F1167       F  0.21917967  0.29575073  0.10305657    -0.22900
H1168       H  0.17938734  0.30301831  0.13818608     0.18300
C1169       C  0.02505116  0.37625263  0.34139919    -0.27000
C1170       C  0.04564273  0.37381912  0.36165538     0.06700
C1171       C  0.06404715  0.35126928  0.36053437     0.26300
C1172       C  0.06099510  0.33091203  0.34002764    -0.11400
C1173       C  0.03923721  0.33261403  0.32083608    -0.25400
C1174       C  0.02176926  0.35592261  0.32126620     0.37100
C1175       C  0.04559322  0.39357860  0.38508341     0.06700
F1176       F  0.08450400  0.34868310  0.37959039    -0.19200
H1177       H  0.07469952  0.31319002  0.34001047     0.16500
F1178       F  0.00095430  0.35872367  0.30257807    -0.22900
H1179       H  0.01058308  0.39336703  0.34193817     0.18300
C1180       C  0.04569076  0.42219154  0.38029792     0.26300
C1181       C  0.04046557  0.44064062  0.40194209    -0.11400
C1182       C  0.03481013  0.43099142  0.42880354    -0.25500
C1183       C  0.03599103  0.40229572  0.43376481     0.37200
C1184       C  0.04140403  0.38387822  0.41207354    -0.27100
F1185       F  0.04998491  0.43224517  0.35447036    -0.19200
H1186       H  0.04000306  0.46253929  0.39740540     0.16500
F1187       F  0.03042216  0.39180593  0.45915501    -0.22900
H1188       H  0.04078905  0.36187148  0.41607999     0.18300
C1189       C  0.90009505  0.19368763  0.34715938    -0.27000
C1190       C  0.89285084  0.21409992  0.36650021     0.06700
C1191       C  0.90806766  0.23881424  0.36727667     0.26300
C1192       C  0.92900126  0.24370133  0.34806086    -0.11400
C1193       C  0.93544559  0.22406324  0.32761723    -0.25400
C1194       C  0.92127928  0.19854579  0.32781397     0.37100
C1195       C  0.86761903  0.21157539  0.38376659     0.06700
F1196       F  0.90194339  0.25871749  0.38611953    -0.19200
H1197       H  0.93978853  0.26332422  0.34881882     0.16500
F1198       F  0.92674560  0.17898526  0.30844722    -0.22900
H1199       H  0.88848007  0.17455142  0.34621021     0.18300
C1200       C  0.84599756  0.23052031  0.37984273     0.26300
C1201       C  0.82413025  0.23183821  0.39853349    -0.11400
C1202       C  0.82315306  0.21430433  0.42162429    -0.25500
C1203       C  0.84371624  0.19384398  0.42454822     0.37200
C1204       C  0.86588903  0.19256207  0.40565829    -0.27100
F1205       F  0.84672523  0.24870436  0.35851525    -0.19200
H1206       H  0.80840144  0.24752550  0.39554343     0.16500
F1207       F  0.84353406  0.17658896  0.44662355    -0.22900
H1208       H  0.88239924  0.17777826  0.40894330     0.18300
C1209       C  0.90025213  0.90089879  0.07030954    -0.27000
C1210       C  0.87724792  0.89791806  0.05280558     0.06700
C1211       C  0.87274156  0.91730743  0.03180273     0.26300
C1212       C  0.89208246  0.93811221  0.02699716    -0.11400
C1213       C  0.91623012  0.94010933  0.04312921    -0.25400
C1214       C  0.91956807  0.92210524  0.06573485     0.37100
C1215       C  0.86063495  0.87236600  0.05286492     0.06700
F1216       F  0.85056656  0.91489727  0.01469226    -0.19200
H1217       H  0.88876739  0.95197857  0.00975121     0.16500
F1218       F  0.94245281  0.92356531  0.08195523    -0.22900
H1219       H  0.90402116  0.88592425  0.08648876     0.18300
C1220       C  0.86725134  0.85144724  0.03389257     0.26300
C1221       C  0.84915220  0.82940420  0.02970632    -0.11400
C1222       C  0.82421135  0.82768461  0.04450763    -0.25500
C1223       C  0.81827122  0.84783940  0.06467876     0.37200
C1224       C  0.83636041  0.87021016  0.06864678    -0.27100
F1225       F  0.89053215  0.85323748  0.01826562    -0.19200
H1226       H  0.85417387  0.81411356  0.01410927     0.16500
F1227       F  0.79407689  0.84707797  0.07892181    -0.22900
H1228       H  0.83084103  0.88645267  0.08305071     0.18300
C1229       C  0.08323254  0.12589094  0.97329355    -0.27000
C1230       C  0.10734014  0.11853809  0.95877303     0.06700
C1231       C  0.10894927  0.09186407  0.94713284     0.26300
C1232       C  0.08756584  0.07268505  0.95130175    -0.11400
C1233       C  0.06390062  0.07980919  0.96668254    -0.25400
C1234       C  0.06168698  0.10696082  0.97704130     0.37100
C1235       C  0.13138600  0.13795564  0.95813164     0.06700
F1236       F  0.13129897  0.08423320  0.93192832    -0.19200
H1237       H  0.08971814  0.05207266  0.94281599     0.16500
F1238       F  0.03948188  0.11483306  0.99234904    -0.22900
H1239       H  0.08152853  0.14602502  0.98294060     0.18300
C1240       C  0.12766529  0.16640827  0.95328722     0.26300
C1241       C  0.14977404  0.18487285  0.95658861    -0.11400
C1242       C  0.17621420  0.17548716  0.96447645    -0.25500
C1243       C  0.18024754  0.14684963  0.96792391     0.37200
C1244       C  0.15804630  0.12844371  0.96494270    -0.27100
F1245       F  0.10255789  0.17646753  0.94566564    -0.19200
H1246       H  0.14601434  0.20670476  0.95343265     0.16500
F1247       F  0.20523828  0.13664064  0.97569038    -0.22900
H1248       H  0.16150749  0.10676913  0.96925580     0.18300
C1249       C  0.04042235  0.86637868  0.84822444    -0.27000
C1250       C  0.02910790  0.86154342  0.87446877     0.06700
C1251       C  0.01875341  0.83519211  0.88075184     0.26300
C1252       C  0.01871282  0.81436036  0.86070055    -0.11400
C1253       C  0.02843299  0.81955418  0.83378705    -0.25400
C1254       C  0.03996485  0.84566854  0.82793185     0.37100
C1255       C  0.02503323  0.88470239  0.89404737     0.06700
F1256       F  0.00773799  0.82995388  0.90602045    -0.19200
H1257       H  0.00964912  0.79455763  0.86587027     0.16500
F1258       F  0.05008136  0.85146707  0.80242862    -0.22900
H1259       H  0.04838496  0.88664757  0.84303872     0.18300
C1260       C  0.04745334  0.89842416  0.90648250     0.26300
C1261       C  0.04271251  0.92021872  0.92507341    -0.11400
C1262       C  0.01555190  0.92881417  0.93133943    -0.25500
C1263       C  0.99320685  0.91514032  0.91830328     0.37200
C1264       C  0.99802917  0.89330902  0.90007189    -0.27100
F1265       F  0.07381751  0.89037046  0.90107114    -0.19200
H1266       H  0.06032021  0.93024680  0.93469337     0.16500
F1267       F  0.96656951  0.92287153  0.92287322    -0.22900
H1268       H  0.98052604  0.88314743  0.89035495     0.18300
C1269       C  0.11873210  0.98337915  0.08479984    -0.27000
C1270       C  0.11318105  0.96916670  0.10949597     0.06700
C1271       C  0.08665228  0.95776406  0.11342629     0.26300
C1272       C  0.06590795  0.96161298  0.09360886    -0.11400
C1273       C  0.07126449  0.97644326  0.06926037    -0.25400
C1274       C  0.09811994  0.98686375  0.06477787     0.37100
C1275       C  0.13437488  0.96823191  0.13181196     0.06700
F1276       F  0.08071767  0.94304838  0.13653176    -0.19200
H1277       H  0.04546858  0.95320824  0.09745533     0.16500
F1278       F  0.10404361  0.00189959  0.04186771    -0.22900
H1279       H  0.13878972  0.99283778  0.08145412     0.18300
C1280       C  0.16222522  0.96187982  0.12604886     0.26300
C1281       C  0.18228739  0.96373852  0.14685353    -0.11400
C1282       C  0.17506045  0.97180155  0.17386779    -0.25500
C1283       C  0.14700980  0.97716762  0.17982192     0.37200
C1284       C  0.12703278  0.97552097  0.15896420    -0.27100
F1285       F  0.17010817  0.95405207  0.10027042    -0.19200
H1286       H  0.20365626  0.95931581  0.14164689     0.16500
F1287       F  0.13896985  0.98549547  0.20539206    -0.22900
H1288       H  0.10585556  0.98105300  0.16387233     0.18300
C1289       C  0.84211449  0.05828252  0.85524035    -0.27000
C1290       C  0.86296611  0.03909704  0.86142348     0.06700
C1291       C  0.86564345  0.01519204  0.84524402     0.26300
C1292       C  0.84699121  0.00998233  0.82388272    -0.11400
C1293       C  0.82532890  0.02852656  0.81818697    -0.25400
C1294       C  0.82340755  0.05314743  0.83364014     0.37100
C1295       C  0.87989891  0.04189673  0.88659188     0.06700
F1296       F  0.88574148  0.99638545  0.85083663    -0.19200
H1297       H  0.84915068  0.99101995  0.81212513     0.16500
F1298       F  0.80256315  0.07136163  0.82900519    -0.22900
H1299       H  0.83968117  0.07665349  0.86783786     0.18300
C1300       C  0.90431716  0.05766493  0.88687718     0.26300
C1301       C  0.92245618  0.05601913  0.90948909    -0.11400
C1302       C  0.91648451  0.03829932  0.93167070    -0.25500
C1303       C  0.89123590  0.02381367  0.93189765     0.37200
C1304       C  0.87313699  0.02567461  0.90954123    -0.27100
F1305       F  0.91138981  0.07316899  0.86463189    -0.19200
H1306       H  0.94192778  0.06710103  0.90884464     0.16500
F1307       F  0.88457418  0.00698965  0.95332324    -0.22900
H1308       H  0.85436197  0.01341581  0.90953231     0.18300
C1309       C  0.95548283  0.13956369  0.16613629    -0.27000
C1310       C  0.95927047  0.14534297  0.13794237     0.06700
C1311       C  0.96526504  0.17270565  0.13005754     0.26300
C1312       C  0.96945443  0.19313493  0.15012845    -0.11400
C1313       C  0.96807573  0.18674252  0.17843884    -0.25400
C1314       C  0.96010185  0.15982036  0.18621378     0.37100
C1315       C  0.95965748  0.12238541  0.11738617     0.06700
F1316       F  0.96906450  0.17940395  0.10309964    -0.19200
H1317       H  0.97530039  0.21366034  0.14342577     0.16500
F1318       F  0.95775434  0.15260948  0.21321647    -0.22900
H1319       H  0.94990935  0.11893776  0.17276618     0.18300
C1320       C  0.97429958  0.09786011  0.12310239     0.26300
C1321       C  0.97653390  0.07715549  0.10315174    -0.11400
C1322       C  0.96494550  0.08056095  0.07676456    -0.25500
C1323       C  0.94987330  0.10479511  0.07107298     0.37200
C1324       C  0.94698974  0.12530189  0.09135388    -0.27100
F1325       F  0.98792427  0.09444405  0.14740943    -0.19200
H1326       H  0.98856554  0.05890911  0.10800707     0.16500
F1327       F  0.93804602  0.10876910  0.04593541    -0.22900
H1328       H  0.93515383  0.14366777  0.08653704     0.18300
loop_ 
_geom_bond_atom_site_label_1 
_geom_bond_atom_site_label_2 
_geom_bond_distance 
_geom_bond_site_symmetry_2 
_ccdc_geom_bond_type 
O1           C17   1.270       .  A
O1           Zn7   1.986   1_545  S
C2           O18   1.273   1_455  A
C2           O15   1.279       .  A
C2         C1262   1.490       .  S
O3           C16   1.276       .  A
O3          Cd10   2.097       .  S
O4           C22   1.277       .  A
O4          Cd13   2.080   1_554  S
O5           C19   1.276       .  A
O5           Cd9   2.074   1_455  S
O6           C17   1.275       .  A
O6           Cd9   2.092       .  S
Zn7          O18   2.000       .  S
Zn7          O20   1.993   1_556  S
Zn7          O12   1.917   1_566  S
O8           C19   1.278       .  A
O8          Cd13   2.090   1_545  S
Cd9          O11   2.077   1_556  S
Cd9          O12   2.010   1_556  S
Cd10         O14   2.067   1_565  S
Cd10         O23   2.073   1_655  S
Cd10         O12   2.009   1_565  S
O11          C21   1.277       .  A
O12         Cd13   2.012   1_644  S
Cd13         O15   2.097       .  S
O14          C21   1.276       .  A
C16          O20   1.271       .  A
C16        C1213   1.481       .  S
C17        C1302   1.473       .  S
C19        C1233   1.489       .  S
C21        C1322   1.481       .  S
C22          O23   1.276       .  A
C22        C1273   1.482       .  S
O24          C40   1.269       .  A
O24         Zn30   1.976   1_455  S
C25          O41   1.272       .  A
C25          O38   1.277       .  A
C25        C1142   1.485       .  S
O26          C39   1.276       .  A
O26         Cd33   2.094       .  S
O27          C45   1.278       .  A
O27         Cd36   2.085       .  S
O28          C42   1.278       .  A
O28         Cd32   2.083       .  S
O29          C40   1.277       .  A
O29         Cd32   2.102       .  S
Zn30         O41   1.993       .  S
Zn30         O43   2.009       .  S
Zn30         O35   1.918   1_655  S
O31          C42   1.278       .  A
O31         Cd36   2.087   1_455  S
Cd32         O34   2.088       .  S
Cd32         O35   2.019       .  S
Cd33         O37   2.073   1_655  S
Cd33         O46   2.064       .  S
Cd33         O35   2.005   1_655  S
O34          C44   1.278       .  A
O35         Cd36   2.017   1_455  S
Cd36         O38   2.102       .  S
O37          C44   1.276       .  A
C39          O43   1.274       .  A
C39        C1193   1.488       .  S
C40        C1173   1.478       .  S
C42        C1153   1.491       .  S
C44        C1113   1.485       .  S
C45          O46   1.275       .  A
C45        C1313   1.487       .  S
O47          C63   1.271       .  A
O47         Zn53   1.980       .  S
C48          O64   1.270       .  A
C48          O61   1.278       .  A
C48        C1033   1.489       .  S
O49          C62   1.278       .  A
O49         Cd56   2.112       .  S
O50          C68   1.277       .  A
O50         Cd59   2.080       .  S
O51          C65   1.276       .  A
O51         Cd55   2.072       .  S
O52          C63   1.276       .  A
O52         Cd55   2.098       .  S
Zn53         O64   1.986       .  S
Zn53         O66   1.984       .  S
Zn53         O58   1.908       .  S
O54          C65   1.278       .  A
O54         Cd59   2.083       .  S
Cd55         O57   2.078       .  S
Cd55         O58   2.011       .  S
Cd56         O60   2.084       .  S
Cd56         O69   2.074       .  S
Cd56         O58   2.014       .  S
O57          C67   1.277       .  A
O58         Cd59   2.015       .  S
Cd59         O61   2.107       .  S
O60          C67   1.278       .  A
C62          O66   1.271       .  A
C62        C1202   1.484       .  S
C63        C1053   1.487       .  S
C65        C1073   1.486       .  S
C67        C1013   1.489       .  S
C68          O69   1.277       .  A
C68        C1093   1.485       .  S
O70          C86   1.271   1_565  A
O70         Zn76   1.991       .  S
C71          O87   1.272       .  A
C71          O84   1.279       .  A
C71         C993   1.486       .  S
O72          C85   1.277       .  A
O72         Cd79   2.108       .  S
O73          C91   1.278       .  A
O73         Cd82   2.080       .  S
O74          C88   1.275       .  A
O74         Cd78   2.069       .  S
O75          C86   1.275       .  A
O75         Cd78   2.085       .  S
Zn76         O87   1.989       .  S
Zn76         O89   1.982       .  S
Zn76         O81   1.914       .  S
O77          C88   1.278       .  A
O77         Cd82   2.094   1_545  S
Cd78         O80   2.064       .  S
Cd78         O81   2.005   1_545  S
Cd79         O83   2.079   1_565  S
Cd79         O92   2.082       .  S
Cd79         O81   2.017       .  S
O80          C90   1.275       .  A
O81         Cd82   2.012       .  S
Cd82         O84   2.102       .  S
O83          C90   1.277       .  A
C85          O89   1.269       .  A
C85         C933   1.479       .  S
C86        C1293   1.479       .  S
C88         C953   1.490       .  S
C90        C1102   1.482       .  S
C91          O92   1.277       .  A
C91         C982   1.480       .  S
O93         C109   1.271       .  A
O93         Zn99   1.988       .  S
C94         O110   1.270   1_545  A
C94         O107   1.274       .  A
C94         C853   1.470       .  S
O95         C108   1.279       .  A
O95        Cd102   2.114       .  S
O96         C114   1.275       .  A
O96        Cd105   2.062       .  S
O97         C111   1.278       .  A
O97        Cd101   2.089   1_545  S
O98         C109   1.275       .  A
O98        Cd101   2.101       .  S
Zn99        O110   1.983       .  S
Zn99        O112   1.993       .  S
Zn99        O104   1.913       .  S
O100        C111   1.277       .  A
O100       Cd105   2.079       .  S
Cd101       O103   2.068       .  S
Cd101       O104   2.015       .  S
Cd102       O106   2.085       .  S
Cd102       O115   2.096   1_565  S
Cd102       O104   2.019       .  S
O103        C113   1.277       .  A
O104       Cd105   2.010   1_565  S
Cd105       O107   2.085       .  S
O106        C113   1.279       .  A
C108        O112   1.272       .  A
C108        C902   1.492       .  S
C109        C922   1.477       .  S
C111        C882   1.490       .  S
C113       C1282   1.485       .  S
C114        O115   1.278       .  A
C114       C1122   1.490       .  S
O116        C132   1.271       .  A
O116       Zn122   1.985       .  S
C117        O133   1.271       .  A
C117        O130   1.278       .  A
C117        C842   1.484       .  S
O118        C131   1.277       .  A
O118       Cd125   2.103       .  S
O119        C137   1.279       .  A
O119       Cd128   2.091       .  S
O120        C134   1.276       .  A
O120       Cd124   2.074   1_655  S
O121        C132   1.275       .  A
O121       Cd124   2.087       .  S
Zn122       O133   1.988   1_455  S
Zn122       O135   1.994       .  S
Zn122       O127   1.913   1_455  S
O123        C134   1.279       .  A
O123       Cd128   2.088       .  S
Cd124       O126   2.069       .  S
Cd124       O127   2.009   1_455  S
Cd125       O129   2.087       .  S
Cd125       O138   2.075   1_455  S
Cd125       O127   2.011   1_455  S
O126        C136   1.276       .  A
O127       Cd128   2.018       .  S
Cd128       O130   2.112       .  S
O129        C136   1.278       .  A
C131        O135   1.272       .  A
C131        C773   1.490       .  S
C132        C822   1.482       .  S
C134        C793   1.492       .  S
C136       C1182   1.489       .  S
C137        O138   1.278       .  A
C137       C1042   1.492       .  S
O139        C155   1.271       .  A
O139       Zn145   1.985       .  S
C140        O156   1.270       .  A
C140        O153   1.276       .  A
C140        C733   1.482       .  S
O141        C154   1.277       .  A
O141       Cd148   2.112       .  S
O142        C160   1.276       .  A
O142       Cd151   2.072       .  S
O143        C157   1.279       .  A
O143       Cd147   2.098       .  S
O144        C155   1.278       .  A
O144       Cd147   2.110       .  S
Zn145       O156   1.977       .  S
Zn145       O158   1.989       .  S
Zn145       O150   1.910       .  S
O146        C157   1.277       .  A
O146       Cd151   2.075       .  S
Cd147       O149   2.085       .  S
Cd147       O150   2.024       .  S
Cd148       O152   2.076       .  S
Cd148       O161   2.092       .  S
Cd148       O150   2.017       .  S
O149        C159   1.279       .  A
O150       Cd151   2.011       .  S
Cd151       O153   2.101       .  S
O152        C159   1.278       .  A
C154        O158   1.270       .  A
C154        C693   1.483       .  S
C155        C753   1.487       .  S
C157        C713   1.491       .  S
C159       C1082   1.488       .  S
C160        O161   1.278       .  A
C160        C962   1.489       .  S
O162        C178   1.271       .  A
O162       Zn168   1.990       .  S
C163        O179   1.271       .  A
C163        O176   1.278       .  A
C163       C1002   1.484       .  S
O164        C177   1.276       .  A
O164       Cd171   2.089       .  S
O165        C183   1.278       .  A
O165       Cd174   2.085   1_554  S
O166        C180   1.277       .  A
O166       Cd170   2.077   1_556  S
O167        C178   1.276       .  A
O167       Cd170   2.092   1_556  S
Zn168       O179   1.992       .  S
Zn168       O181   1.996   1_556  S
Zn168       O173   1.918   1_556  S
O169        C180   1.278       .  A
O169       Cd174   2.083       .  S
Cd170       O172   2.073       .  S
Cd170       O173   2.010       .  S
Cd171       O175   2.078       .  S
Cd171       O184   2.073       .  S
Cd171       O173   2.009       .  S
O172        C182   1.276       .  A
O173       Cd174   2.013   1_554  S
Cd174       O176   2.103       .  S
O175        C182   1.277       .  A
C177        O181   1.272       .  A
C177       C1222   1.477       .  S
C178        C673   1.481       .  S
C180        C622   1.488       .  S
C182        C653   1.484       .  S
C183        O184   1.276       .  A
C183        C642   1.486       .  S
O185        C201   1.270       .  A
O185       Zn191   1.981       .  S
C186        O202   1.272       .  A
C186        O199   1.276       .  A
C186        C573   1.479       .  S
O187        C200   1.278       .  A
O187       Cd194   2.112       .  S
O188        C206   1.277       .  A
O188       Cd197   2.070   1_554  S
O189        C203   1.279       .  A
O189       Cd193   2.092       .  S
O190        C201   1.277       .  A
O190       Cd193   2.108       .  S
Zn191       O202   1.993       .  S
Zn191       O204   1.987       .  S
Zn191       O196   1.913       .  S
O192        C203   1.277       .  A
O192       Cd197   2.079       .  S
Cd193       O195   2.075   1_556  S
Cd193       O196   2.017       .  S
Cd194       O198   2.098       .  S
Cd194       O207   2.095       .  S
Cd194       O196   2.024   1_554  S
O195        C205   1.277       .  A
O196       Cd197   2.009       .  S
Cd197       O199   2.097       .  S
O198        C205   1.280       .  A
C200        O204   1.271   1_554  A
C200        C593   1.490       .  S
C201        C742   1.483       .  S
C203       C1242   1.492       .  S
C205        C873   1.492       .  S
C206        O207   1.279       .  A
C206       C1162   1.489       .  S
O208        C224   1.270       .  A
O208       Zn214   1.985       .  S
C209        O225   1.270       .  A
C209        O222   1.278       .  A
C209       C1133   1.480       .  S
O210        C223   1.276       .  A
O210       Cd217   2.093       .  S
O211        C229   1.277       .  A
O211       Cd220   2.081       .  S
O212        C226   1.278       .  A
O212       Cd216   2.083       .  S
O213        C224   1.276       .  A
O213       Cd216   2.099       .  S
Zn214       O225   1.979       .  S
Zn214       O227   2.000       .  S
Zn214       O219   1.915       .  S
O215        C226   1.279       .  A
O215       Cd220   2.093       .  S
Cd216       O218   2.071       .  S
Cd216       O219   2.013       .  S
Cd217       O221   2.072       .  S
Cd217       O230   2.069       .  S
Cd217       O219   2.010       .  S
O218        C228   1.276       .  A
O219       Cd220   2.017       .  S
Cd220       O222   2.109       .  S
O221        C228   1.276       .  A
C223        O227   1.272       .  A
C223        C802   1.481       .  S
C224       C1062   1.475       .  S
C226        C533   1.493       .  S
C228        C553   1.478       .  S
C229        O230   1.275       .  A
C229        C662   1.484       .  S
O231        C247   1.272       .  A
O231       Zn237   2.004       .  S
C232        O248   1.270   1_545  A
C232        O245   1.277       .  A
C232        C862   1.486       .  S
O233        C246   1.275       .  A
O233       Cd240   2.095       .  S
O234        C252   1.276       .  A
O234       Cd243   2.072       .  S
O235        C249   1.280       .  A
O235       Cd239   2.098   1_545  S
O236        C247   1.279       .  A
O236       Cd239   2.110       .  S
Zn237       O248   1.982       .  S
Zn237       O250   1.987       .  S
Zn237       O242   1.915       .  S
O238        C249   1.275       .  A
O238       Cd243   2.072       .  S
Cd239       O241   2.082       .  S
Cd239       O242   2.009       .  S
Cd240       O244   2.075       .  S
Cd240       O253   2.077   1_565  S
Cd240       O242   2.014       .  S
O241        C251   1.278       .  A
O242       Cd243   2.010   1_565  S
Cd243       O245   2.094       .  S
O244        C251   1.277       .  A
C246        O250   1.270       .  A
C246        C493   1.473       .  S
C247        C522   1.484       .  S
C249        C722   1.491       .  S
C251        C973   1.490       .  S
C252        O253   1.276       .  A
C252       C1022   1.480       .  S
O254        C270   1.272   1_455  A
O254       Zn260   1.992       .  S
C255        O271   1.273       .  A
C255        O268   1.278       .  A
C255        C453   1.490       .  S
O256        C269   1.276       .  A
O256       Cd263   2.096       .  S
O257        C275   1.278       .  A
O257       Cd266   2.086       .  S
O258        C272   1.276       .  A
O258       Cd262   2.076       .  S
O259        C270   1.277       .  A
O259       Cd262   2.102       .  S
Zn260       O271   2.003       .  S
Zn260       O273   1.989       .  S
Zn260       O265   1.916       .  S
O261        C272   1.278       .  A
O261       Cd266   2.081   1_655  S
Cd262       O264   2.077       .  S
Cd262       O265   2.016   1_655  S
Cd263       O267   2.072   1_455  S
Cd263       O276   2.076       .  S
Cd263       O265   2.014       .  S
O264        C274   1.277       .  A
O265       Cd266   2.014       .  S
Cd266       O268   2.104       .  S
O267        C274   1.276       .  A
C269        O273   1.271       .  A
C269        C473   1.480       .  S
C270        C833   1.489       .  S
C272        C942   1.489       .  S
C274        C682   1.488       .  S
C275        O276   1.277       .  A
C275       C1253   1.487       .  S
O277        C293   1.271       .  A
O277       Zn283   1.988       .  S
C278        O294   1.270       .  A
C278        O291   1.277       .  A
C278        C433   1.481       .  S
O279        C292   1.275       .  A
O279       Cd286   2.083       .  S
O280        C298   1.278       .  A
O280       Cd289   2.088       .  S
O281        C295   1.277       .  A
O281       Cd285   2.071       .  S
O282        C293   1.277       .  A
O282       Cd285   2.105       .  S
Zn283       O294   1.984       .  S
Zn283       O296   1.986       .  S
Zn283       O288   1.910       .  S
O284        C295   1.277       .  A
O284       Cd289   2.074       .  S
Cd285       O287   2.091       .  S
Cd285       O288   2.014       .  S
Cd286       O290   2.069       .  S
Cd286       O299   2.064       .  S
Cd286       O288   2.006       .  S
O287        C297   1.278       .  A
O288       Cd289   2.019       .  S
Cd289       O291   2.109       .  S
O290        C297   1.275       .  A
C292        O296   1.271       .  A
C292        C502   1.481       .  S
C293        C913   1.492       .  S
C295        C413   1.478       .  S
C297        C633   1.488       .  S
C298        O299   1.275       .  A
C298        C562   1.486       .  S
O300        C316   1.272       .  A
O300       Zn306   2.001       .  S
C301        O317   1.271       .  A
C301        O314   1.275       .  A
C301        C813   1.475       .  S
O302        C315   1.276       .  A
O302       Cd309   2.084       .  S
O303        C321   1.276       .  A
O303       Cd312   2.085       .  S
O304        C318   1.279       .  A
O304       Cd308   2.084       .  S
O305        C316   1.279       .  A
O305       Cd308   2.117       .  S
Zn306       O317   1.993       .  S
Zn306       O319   1.997       .  S
Zn306       O311   1.925       .  S
O307        C318   1.277       .  A
O307       Cd312   2.077       .  S
Cd308       O310   2.083       .  S
Cd308       O311   2.012       .  S
Cd309       O313   2.086       .  S
Cd309       O322   2.075       .  S
Cd309       O311   2.011       .  S
O310        C320   1.277       .  A
O311       Cd312   2.017       .  S
Cd312       O314   2.093       .  S
O313        C320   1.278       .  A
C315        O319   1.273       .  A
C315        C393   1.480       .  S
C316        C462   1.484       .  S
C318        C893   1.488       .  S
C320        C513   1.494       .  S
C321        O322   1.276       .  A
C321        C442   1.492       .  S
O323        C339   1.274       .  A
O323       Zn329   2.004       .  S
C324        O340   1.272       .  A
C324        O337   1.275       .  A
C324        C382   1.473       .  S
O325        C338   1.274       .  A
O325       Cd332   2.082       .  S
O326        C344   1.278       .  A
O326       Cd335   2.088       .  S
O327        C341   1.276       .  A
O327       Cd331   2.069       .  S
O328        C339   1.276       .  A
O328       Cd331   2.094       .  S
Zn329       O340   2.005       .  S
Zn329       O342   1.999       .  S
Zn329       O334   1.922       .  S
O330        C341   1.277       .  A
O330       Cd335   2.077       .  S
Cd331       O333   2.087       .  S
Cd331       O334   2.015       .  S
Cd332       O336   2.070       .  S
Cd332       O345   2.067       .  S
Cd332       O334   2.002       .  S
O333        C343   1.277       .  A
O334       Cd335   2.013       .  S
Cd335       O337   2.090       .  S
O336        C343   1.276       .  A
C338        O342   1.272       .  A
C338        C582   1.483       .  S
C339        C762   1.483       .  S
C341        C402   1.484       .  S
C343        C782   1.491       .  S
C344        O345   1.275       .  A
C344        C482   1.489       .  S
O346        C362   1.273       .  A
O346       Zn352   1.995       .  S
C347        O363   1.274   1_554  A
C347        O360   1.277       .  A
C347        C602   1.485       .  S
O348        C361   1.275       .  A
O348       Cd355   2.093       .  S
O349        C367   1.276       .  A
O349       Cd358   2.075       .  S
O350        C364   1.278       .  A
O350       Cd354   2.087   1_554  S
O351        C362   1.280       .  A
O351       Cd354   2.109       .  S
Zn352       O363   2.009       .  S
Zn352       O365   2.004       .  S
Zn352       O357   1.920       .  S
O353        C364   1.278       .  A
O353       Cd358   2.087       .  S
Cd354       O356   2.091       .  S
Cd354       O357   2.013       .  S
Cd355       O359   2.072       .  S
Cd355       O368   2.062   1_556  S
Cd355       O357   2.006       .  S
O356        C366   1.279       .  A
O357       Cd358   2.015   1_556  S
Cd358       O360   2.095       .  S
O359        C366   1.276       .  A
C361        O365   1.272       .  A
C361        C373   1.477       .  S
C362        C702   1.491       .  S
C364        C542   1.491       .  S
C366        C613   1.492       .  S
C367        O368   1.275       .  A
C367        C422   1.484       .  S
C369        C370   1.406       .  A
C369        C374   1.404       .  A
C369        H379   1.084       .  S
C370        C375   1.481       .  S
C370        C371   1.405       .  A
C371        C372   1.397       .  A
C371        F376   1.358       .  S
C372        C373   1.404       .  A
C372        H377   1.084       .  S
C373        C374   1.406       .  A
C374        F378   1.357       .  S
C375        C380   1.405       .  A
C375        C384   1.406       .  A
C380        C381   1.397       .  A
C380        F385   1.358       .  S
C381        C382   1.403       .  A
C381        H386   1.084       .  S
C382        C383   1.405       .  A
C383        C384   1.403       .  A
C383        F387   1.357       .  S
C384        H388   1.084       .  S
C389        C390   1.402       .  A
C389        C394   1.393       .  A
C389        H399   1.084       .  S
C390        C395   1.481       .  S
C390        C391   1.407       .  A
C391        C392   1.401       .  A
C391        F396   1.357       .  S
C392        C393   1.406       .  A
C392        H397   1.083       .  S
C393        C394   1.409       .  A
C394        F398   1.358       .  S
C395        C400   1.406       .  A
C395        C404   1.403       .  A
C400        C401   1.398       .  A
C400        F405   1.357       .  S
C401        C402   1.407       .  A
C401        H406   1.084       .  S
C402        C403   1.411       .  A
C403        C404   1.397       .  A
C403        F407   1.358       .  S
C404        H408   1.084       .  S
C409        C410   1.406       .  A
C409        C414   1.401       .  A
C409        H419   1.083       .  S
C410        C415   1.485       .  S
C410        C411   1.408       .  A
C411        C412   1.393       .  A
C411        F416   1.358       .  S
C412        C413   1.403       .  A
C412        H417   1.084       .  S
C413        C414   1.408       .  A
C414        F418   1.357       .  S
C415        C420   1.407       .  A
C415        C424   1.404       .  A
C420        C421   1.398       .  A
C420        F425   1.357       .  S
C421        C422   1.407       .  A
C421        H426   1.083       .  S
C422        C423   1.410       .  A
C423        C424   1.396       .  A
C423        F427   1.358       .  S
C424        H428   1.083       .  S
C429        C430   1.403       .  A
C429        C434   1.393       .  A
C429        H439   1.084       .  S
C430        C435   1.491       .  S
C430        C431   1.412       .  A
C431        C432   1.408       .  A
C431        F436   1.357       .  S
C432        C433   1.405       .  A
C432        H437   1.084       .  S
C433        C434   1.407       .  A
C434        F438   1.358       .  S
C435        C440   1.408       .  A
C435        C444   1.405       .  A
C440        C441   1.398       .  A
C440        F445   1.358       .  S
C441        C442   1.407       .  A
C441        H446   1.083       .  S
C442        C443   1.412       .  A
C443        C444   1.403       .  A
C443        F447   1.357       .  S
C444        H448   1.084       .  S
C449        C450   1.400       .  A
C449        C454   1.396       .  A
C449        H459   1.084       .  S
C450        C455   1.483       .  S
C450        C451   1.406       .  A
C451        C452   1.408       .  A
C451        F456   1.357       .  S
C452        C453   1.409       .  A
C452        H457   1.083       .  S
C453        C454   1.411       .  A
C454        F458   1.358       .  S
C455        C460   1.407       .  A
C455        C464   1.401       .  A
C460        C461   1.409       .  A
C460        F465   1.357       .  S
C461        C462   1.407       .  A
C461        H466   1.083       .  S
C462        C463   1.407       .  A
C463        C464   1.396       .  A
C463        F467   1.358       .  S
C464        H468   1.084       .  S
C469        C470   1.405       .  A
C469        C474   1.405       .  A
C469        H479   1.084       .  S
C470        C475   1.477       .  S
C470        C471   1.402       .  A
C471        C472   1.392       .  A
C471        F476   1.358       .  S
C472        C473   1.405       .  A
C472        H477   1.084       .  S
C473        C474   1.409       .  A
C474        F478   1.357       .  S
C475        C480   1.404       .  A
C475        C484   1.400       .  A
C480        C481   1.401       .  A
C480        F485   1.357       .  S
C481        C482   1.408       .  A
C481        H486   1.083       .  S
C482        C483   1.413       .  A
C483        C484   1.397       .  A
C483        F487   1.357       .  S
C484        H488   1.084       .  S
C489        C490   1.401       .  A
C489        C494   1.393       .  A
C489        H499   1.084       .  S
C490        C495   1.475       .  S
C490        C491   1.405       .  A
C491        C492   1.404       .  A
C491        F496   1.357       .  S
C492        C493   1.405       .  A
C492        H497   1.083       .  S
C493        C494   1.406       .  A
C494        F498   1.358       .  S
C495        C500   1.403       .  A
C495        C504   1.403       .  A
C500        C501   1.391       .  A
C500        F505   1.358       .  S
C501        C502   1.406       .  A
C501        H506   1.084       .  S
C502        C503   1.410       .  A
C503        C504   1.404       .  A
C503        F507   1.357       .  S
C504        H508   1.083       .  S
C509        C510   1.404       .  A
C509        C514   1.400       .  A
C509        H519   1.083       .  S
C510        C515   1.492       .  S
C510        C511   1.408       .  A
C511        C512   1.404       .  A
C511        F516   1.357       .  S
C512        C513   1.409       .  A
C512        H517   1.083       .  S
C513        C514   1.412       .  A
C514        F518   1.357       .  S
C515        C520   1.408       .  A
C515        C524   1.408       .  A
C520        C521   1.400       .  A
C520        F525   1.357       .  S
C521        C522   1.406       .  A
C521        H526   1.084       .  S
C522        C523   1.406       .  A
C523        C524   1.404       .  A
C523        F527   1.357       .  S
C524        H528   1.083       .  S
C529        C530   1.405       .  A
C529        C534   1.400       .  A
C529        H539   1.083       .  S
C530        C535   1.494       .  S
C530        C531   1.409       .  A
C531        C532   1.404       .  A
C531        F536   1.357       .  S
C532        C533   1.408       .  A
C532        H537   1.083       .  S
C533        C534   1.411       .  A
C534        F538   1.357       .  S
C535        C540   1.409       .  A
C535        C544   1.405       .  A
C540        C541   1.403       .  A
C540        F545   1.357       .  S
C541        C542   1.407       .  A
C541        H546   1.084       .  S
C542        C543   1.411       .  A
C543        C544   1.401       .  A
C543        F547   1.357       .  S
C544        H548   1.084       .  S
C549        C550   1.405       .  A
C549        C554   1.400       .  A
C549        H559   1.083       .  S
C550        C555   1.483       .  S
C550        C551   1.407       .  A
C551        C552   1.396       .  A
C551        F556   1.358       .  S
C552        C553   1.404       .  A
C552        H557   1.084       .  S
C553        C554   1.407       .  A
C554        F558   1.357       .  S
C555        C560   1.407       .  A
C555        C564   1.403       .  A
C560        C561   1.399       .  A
C560        F565   1.358       .  S
C561        C562   1.407       .  A
C561        H566   1.083       .  S
C562        C563   1.411       .  A
C563        C564   1.398       .  A
C563        F567   1.357       .  S
C564        H568   1.083       .  S
C569        C570   1.400       .  A
C569        C574   1.392       .  A
C569        H579   1.084       .  S
C570        C575   1.475       .  S
C570        C571   1.405       .  A
C571        C572   1.406       .  A
C571        F576   1.357       .  S
C572        C573   1.407       .  A
C572        H577   1.083       .  S
C573        C574   1.407       .  A
C574        F578   1.358       .  S
C575        C580   1.403       .  A
C575        C584   1.403       .  A
C580        C581   1.393       .  A
C580        F585   1.358       .  S
C581        C582   1.406       .  A
C581        H586   1.084       .  S
C582        C583   1.411       .  A
C583        C584   1.404       .  A
C583        F587   1.357       .  S
C584        H588   1.083       .  S
C589        C590   1.407       .  A
C589        C594   1.409       .  A
C589        H599   1.083       .  S
C590        C595   1.489       .  S
C590        C591   1.405   1_554  A
C591        C592   1.392       .  A
C591        F596   1.358       .  S
C592        C593   1.407   1_556  A
C592        H597   1.083       .  S
C593        C594   1.411       .  A
C594        F598   1.357       .  S
C595        C600   1.407       .  A
C595        C604   1.407       .  A
C600        C601   1.394       .  A
C600        F605   1.358   1_554  S
C601        C602   1.404       .  A
C601        H606   1.084   1_554  S
C602        C603   1.410       .  A
C603        C604   1.407       .  A
C603        F607   1.357       .  S
C604        H608   1.083       .  S
C609        C610   1.405       .  A
C609        C614   1.399       .  A
C609        H619   1.083       .  S
C610        C615   1.494       .  S
C610        C611   1.410       .  A
C611        C612   1.402       .  A
C611        F616   1.357       .  S
C612        C613   1.407       .  A
C612        H617   1.083       .  S
C613        C614   1.412       .  A
C614        F618   1.358       .  S
C615        C620   1.410       .  A
C615        C624   1.406       .  A
C620        C621   1.402       .  A
C620        F625   1.357       .  S
C621        C622   1.406       .  A
C621        H626   1.083       .  S
C622        C623   1.410       .  A
C623        C624   1.399       .  A
C623        F627   1.357       .  S
C624        H628   1.083       .  S
C629        C630   1.404       .  A
C629        C634   1.399       .  A
C629        H639   1.084       .  S
C630        C635   1.489       .  S
C630        C631   1.408       .  A
C631        C632   1.401       .  A
C631        F636   1.357       .  S
C632        C633   1.406       .  A
C632        H637   1.083       .  S
C633        C634   1.411       .  A
C634        F638   1.358       .  S
C635        C640   1.408       .  A
C635        C644   1.405       .  A
C640        C641   1.401       .  A
C640        F645   1.358       .  S
C641        C642   1.407       .  A
C641        H646   1.084       .  S
C642        C643   1.409       .  A
C643        C644   1.398       .  A
C643        F647   1.357       .  S
C644        H648   1.084       .  S
C649        C650   1.405       .  A
C649        C654   1.399       .  A
C649        H659   1.083       .  S
C650        C655   1.485       .  S
C650        C651   1.406       .  A
C651        C652   1.398       .  A
C651        F656   1.358       .  S
C652        C653   1.406       .  A
C652        H657   1.083       .  S
C653        C654   1.409       .  A
C654        F658   1.357       .  S
C655        C660   1.407       .  A
C655        C664   1.404       .  A
C660        C661   1.397       .  A
C660        F665   1.358       .  S
C661        C662   1.405       .  A
C661        H666   1.083       .  S
C662        C663   1.410       .  A
C663        C664   1.400       .  A
C663        F667   1.357       .  S
C664        H668   1.083       .  S
C669        C670   1.406       .  A
C669        C674   1.404       .  A
C669        H679   1.084       .  S
C670        C675   1.482       .  S
C670        C671   1.405       .  A
C671        C672   1.392       .  A
C671        F676   1.358       .  S
C672        C673   1.405       .  A
C672        H677   1.084       .  S
C673        C674   1.408       .  A
C674        F678   1.357       .  S
C675        C680   1.404       .  A
C675        C684   1.403       .  A
C680        C681   1.399       .  A
C680        F685   1.357       .  S
C681        C682   1.409       .  A
C681        H686   1.083       .  S
C682        C683   1.411       .  A
C683        C684   1.398       .  A
C683        F687   1.357       .  S
C684        H688   1.084       .  S
C689        C690   1.403       .  A
C689        C694   1.395       .  A
C689        H699   1.084       .  S
C690        C695   1.487       .  S
C690        C691   1.409       .  A
C691        C692   1.408       .  A
C691        F696   1.357       .  S
C692        C693   1.406       .  A
C692        H697   1.083       .  S
C693        C694   1.408       .  A
C694        F698   1.358       .  S
C695        C700   1.405       .  A
C695        C704   1.406       .  A
C700        C701   1.394       .  A
C700        F705   1.358       .  S
C701        C702   1.408       .  A
C701        H706   1.083       .  S
C702        C703   1.411       .  A
C703        C704   1.408       .  A
C703        F707   1.357       .  S
C704        H708   1.083       .  S
C709        C710   1.409       .  A
C709        C714   1.406       .  A
C709        H719   1.083       .  S
C710        C715   1.495       .  S
C710        C711   1.408       .  A
C711        C712   1.398       .  A
C711        F716   1.357       .  S
C712        C713   1.407       .  A
C712        H717   1.083       .  S
C713        C714   1.410       .  A
C714        F718   1.357       .  S
C715        C720   1.410       .  A
C715        C724   1.405       .  A
C720        C721   1.402       .  A
C720        F725   1.357       .  S
C721        C722   1.405       .  A
C721        H726   1.083       .  S
C722        C723   1.412       .  A
C723        C724   1.401       .  A
C723        F727   1.358       .  S
C724        H728   1.083       .  S
C729        C730   1.406       .  A
C729        C734   1.408       .  A
C729        H739   1.084       .  S
C730        C735   1.481       .  S
C730        C731   1.404       .  A
C731        C732   1.389       .  A
C731        F736   1.358       .  S
C732        C733   1.404       .  A
C732        H737   1.084       .  S
C733        C734   1.410       .  A
C734        F738   1.357       .  S
C735        C740   1.407       .  A
C735        C744   1.401       .  A
C740        C741   1.408       .  A
C740        F745   1.357       .  S
C741        C742   1.407       .  A
C741        H746   1.083       .  S
C742        C743   1.409       .  A
C743        C744   1.391       .  A
C743        F747   1.358       .  S
C744        H748   1.084       .  S
C749        C750   1.407       .  A
C749        C754   1.409       .  A
C749        H759   1.083       .  S
C750        C755   1.487       .  S
C750        C751   1.405       .  A
C751        C752   1.391       .  A
C751        F756   1.358       .  S
C752        C753   1.406       .  A
C752        H757   1.084       .  S
C753        C754   1.410       .  A
C754        F758   1.357       .  S
C755        C760   1.408       .  A
C755        C764   1.403       .  A
C760        C761   1.408       .  A
C760        F765   1.357       .  S
C761        C762   1.408       .  A
C761        H766   1.083       .  S
C762        C763   1.407       .  A
C763        C764   1.392       .  A
C763        F767   1.358       .  S
C764        H768   1.084       .  S
C769        C770   1.405       .  A
C769        C774   1.407       .  A
C769        H779   1.083       .  S
C770        C775   1.482       .  S
C770        C771   1.403       .  A
C771        C772   1.393       .  A
C771        F776   1.358       .  S
C772        C773   1.408       .  A
C772        H777   1.083       .  S
C773        C774   1.412       .  A
C774        F778   1.357       .  S
C775        C780   1.404       .  A
C775        C784   1.403       .  A
C780        C781   1.396       .  A
C780        F785   1.358       .  S
C781        C782   1.408       .  A
C781        H786   1.083       .  S
C782        C783   1.413       .  A
C783        C784   1.404       .  A
C783        F787   1.357       .  S
C784        H788   1.083       .  S
C789        C790   1.404       .  A
C789        C794   1.401       .  A
C789        H799   1.084       .  S
C790        C795   1.488       .  S
C790        C791   1.407       .  A
C791        C792   1.399       .  A
C791        F796   1.358       .  S
C792        C793   1.407       .  A
C792        H797   1.083       .  S
C793        C794   1.413       .  A
C794        F798   1.357       .  S
C795        C800   1.410       .  A
C795        C804   1.404       .  A
C800        C801   1.405       .  A
C800        F805   1.357       .  S
C801        C802   1.405       .  A
C801        H806   1.084       .  S
C802        C803   1.407       .  A
C803        C804   1.395       .  A
C803        F807   1.358       .  S
C804        H808   1.084       .  S
C809        C810   1.401       .  A
C809        C814   1.394       .  A
C809        H819   1.084       .  S
C810        C815   1.473       .  S
C810        C811   1.404       .  A
C811        C812   1.403       .  A
C811        F816   1.357       .  S
C812        C813   1.405       .  A
C812        H817   1.083       .  S
C813        C814   1.406       .  A
C814        F818   1.358       .  S
C815        C820   1.401       .  A
C815        C824   1.403       .  A
C820        C821   1.392       .  A
C820        F825   1.358       .  S
C821        C822   1.407       .  A
C821        H826   1.083       .  S
C822        C823   1.410       .  A
C823        C824   1.404       .  A
C823        F827   1.357       .  S
C824        H828   1.083       .  S
C829        C830   1.406       .  A
C829        C834   1.408       .  A
C829        H839   1.083       .  S
C830        C835   1.485       .  S
C830        C831   1.404       .  A
C831        C832   1.392       .  A
C831        F836   1.358   1_655  S
C832        C833   1.406       .  A
C832        H837   1.084   1_655  S
C833        C834   1.412       .  A
C834        F838   1.357       .  S
C835        C840   1.408       .  A
C835        C844   1.402       .  A
C840        C841   1.408       .  A
C840        F845   1.357       .  S
C841        C842   1.407       .  A
C841        H846   1.083       .  S
C842        C843   1.409       .  A
C843        C844   1.393       .  A
C843        F847   1.358   1_655  S
C844        H848   1.084       .  S
C849        C850   1.406       .  A
C849        C854   1.404       .  A
C849        H859   1.084       .  S
C850        C855   1.480       .  S
C850        C851   1.406       .  A
C851        C852   1.390       .  A
C851        F856   1.358       .  S
C852        C853   1.401       .  A
C852        H857   1.085       .  S
C853        C854   1.406       .  A
C854        F858   1.357       .  S
C855        C860   1.405       .  A
C855        C864   1.400       .  A
C860        C861   1.405       .  A
C860        F865   1.357       .  S
C861        C862   1.409       .  A
C861        H866   1.083       .  S
C862        C863   1.412       .  A
C863        C864   1.390       .  A
C863        F867   1.358   1_545  S
C864        H868   1.084   1_545  S
C869        C870   1.405       .  A
C869        C874   1.399       .  A
C869        H879   1.083       .  S
C870        C875   1.495       .  S
C870        C871   1.410       .  A
C871        C872   1.404       .  A
C871        F876   1.357       .  S
C872        C873   1.407       .  A
C872        H877   1.083       .  S
C873        C874   1.411       .  A
C874        F878   1.357       .  S
C875        C880   1.410       .  A
C875        C884   1.408       .  A
C880        C881   1.400       .  A
C880        F885   1.357       .  S
C881        C882   1.406       .  A
C881        H886   1.083       .  S
C882        C883   1.409       .  A
C883        C884   1.402       .  A
C883        F887   1.357       .  S
C884        H888   1.083       .  S
C889        C890   1.403       .  A
C889        C894   1.402       .  A
C889        H899   1.084       .  S
C890        C895   1.485       .  S
C890        C891   1.407       .  A
C891        C892   1.398       .  A
C891        F896   1.358       .  S
C892        C893   1.406       .  A
C892        H897   1.084       .  S
C893        C894   1.412       .  A
C894        F898   1.357       .  S
C895        C900   1.403       .  A
C895        C904   1.407       .  A
C900        C901   1.394       .  A
C900        F905   1.358       .  S
C901        C902   1.409       .  A
C901        H906   1.084       .  S
C902        C903   1.411       .  A
C903        C904   1.408       .  A
C903        F907   1.357       .  S
C904        H908   1.084       .  S
C909        C910   1.400       .  A
C909        C914   1.390       .  A
C909        H919   1.084       .  S
C910        C915   1.485       .  S
C910        C911   1.407       .  A
C911        C912   1.409       .  A
C911        F916   1.357       .  S
C912        C913   1.411       .  A
C912        H917   1.083       .  S
C913        C914   1.412       .  A
C914        F918   1.358       .  S
C915        C920   1.409       .  A
C915        C924   1.403       .  A
C920        C921   1.409       .  A
C920        F925   1.357       .  S
C921        C922   1.406       .  A
C921        H926   1.083       .  S
C922        C923   1.404       .  A
C923        C924   1.391       .  A
C923        F927   1.358       .  S
C924        H928   1.084       .  S
C929        C930   1.402       .  A
C929        C934   1.394       .  A
C929        H939   1.084       .  S
C930        C935   1.487       .  S
C930        C931   1.411       .  A
C931        C932   1.406       .  A
C931        F936   1.357       .  S
C932        C933   1.404       .  A
C932        H937   1.084       .  S
C933        C934   1.408       .  A
C934        F938   1.358       .  S
C935        C940   1.407       .  A
C935        C944   1.404       .  A
C940        C941   1.399       .  A
C940        F945   1.357       .  S
C941        C942   1.407       .  A
C941        H946   1.083       .  S
C942        C943   1.412       .  A
C943        C944   1.400       .  A
C943        F947   1.357       .  S
C944        H948   1.084       .  S
C949        C950   1.408       .  A
C949        C954   1.404       .  A
C949        H959   1.083       .  S
C950        C955   1.495       .  S
C950        C951   1.408       .  A
C951        C952   1.398       .  A
C951        F956   1.357       .  S
C952        C953   1.407       .  A
C952        H957   1.083       .  S
C953        C954   1.409       .  A
C954        F958   1.357       .  S
C955        C960   1.409       .  A
C955        C964   1.408       .  A
C960        C961   1.399       .  A
C960        F965   1.357       .  S
C961        C962   1.407       .  A
C961        H966   1.083       .  S
C962        C963   1.409       .  A
C963        C964   1.402       .  A
C963        F967   1.357       .  S
C964        H968   1.083       .  S
C969        C970   1.405       .  A
C969        C974   1.399       .  A
C969        H979   1.083       .  S
C970        C975   1.491       .  S
C970        C971   1.408       .  A
C971        C972   1.400       .  A
C971        F976   1.357       .  S
C972        C973   1.408       .  A
C972        H977   1.083       .  S
C973        C974   1.410       .  A
C974        F978   1.357       .  S
C975        C980   1.409       .  A
C975        C984   1.408       .  A
C980        C981   1.396       .  A
C980        F985   1.358       .  S
C981        C982   1.403       .  A
C981        H986   1.084       .  S
C982        C983   1.407       .  A
C983        C984   1.403       .  A
C983        F987   1.357       .  S
C984        H988   1.083       .  S
C989        C990   1.401       .  A
C989        C994   1.393       .  A
C989        H999   1.084       .  S
C990        C995   1.481       .  S
C990        C991   1.406       .  A
C991        C992   1.405       .  A
C991        F996   1.357       .  S
C992        C993   1.408       .  A
C992        H997   1.084       .  S
C993        C994   1.411       .  A
C994        F998   1.358       .  S
C995       C1000   1.406       .  A
C995       C1004   1.401       .  A
C1000      C1001   1.406       .  A
C1000      F1005   1.357       .  S
C1001      C1002   1.407       .  A
C1001      H1006   1.083       .  S
C1002      C1003   1.410       .  A
C1003      C1004   1.394       .  A
C1003      F1007   1.358       .  S
C1004      H1008   1.084       .  S
C1009      C1010   1.406       .  A
C1009      C1014   1.400       .  A
C1009      H1019   1.083       .  S
C1010      C1015   1.491       .  S
C1010      C1011   1.409       .  A
C1011      C1012   1.399       .  A
C1011      F1016   1.357       .  S
C1012      C1013   1.407       .  A
C1012      H1017   1.083       .  S
C1013      C1014   1.410       .  A
C1014      F1018   1.357       .  S
C1015      C1020   1.409       .  A
C1015      C1024   1.407       .  A
C1020      C1021   1.397       .  A
C1020      F1025   1.357       .  S
C1021      C1022   1.404       .  A
C1021      H1026   1.084       .  S
C1022      C1023   1.407       .  A
C1023      C1024   1.401       .  A
C1023      F1027   1.357       .  S
C1024      H1028   1.083       .  S
C1029      C1030   1.400       .  A
C1029      C1034   1.394       .  A
C1029      H1039   1.085       .  S
C1030      C1035   1.483       .  S
C1030      C1031   1.407       .  A
C1031      C1032   1.406       .  A
C1031      F1036   1.357       .  S
C1032      C1033   1.408       .  A
C1032      H1037   1.084       .  S
C1033      C1034   1.413       .  A
C1034      F1038   1.358       .  S
C1035      C1040   1.404       .  A
C1035      C1044   1.403       .  A
C1040      C1041   1.398       .  A
C1040      F1045   1.358       .  S
C1041      C1042   1.409       .  A
C1041      H1046   1.083       .  S
C1042      C1043   1.413       .  A
C1043      C1044   1.403       .  A
C1043      F1047   1.357       .  S
C1044      H1048   1.084       .  S
C1049      C1050   1.405       .  A
C1049      C1054   1.406       .  A
C1049      H1059   1.084       .  S
C1050      C1055   1.481       .  S
C1050      C1051   1.403       .  A
C1051      C1052   1.390       .  A
C1051      F1056   1.358       .  S
C1052      C1053   1.407       .  A
C1052      H1057   1.084       .  S
C1053      C1054   1.411       .  A
C1054      F1058   1.357       .  S
C1055      C1060   1.405       .  A
C1055      C1064   1.405       .  A
C1060      C1061   1.392       .  A
C1060      F1065   1.358       .  S
C1061      C1062   1.403       .  A
C1061      H1066   1.084       .  S
C1062      C1063   1.407       .  A
C1063      C1064   1.406       .  A
C1063      F1067   1.357       .  S
C1064      H1068   1.084       .  S
C1069      C1070   1.405       .  A
C1069      C1074   1.398       .  A
C1069      H1079   1.083       .  S
C1070      C1075   1.490       .  S
C1070      C1071   1.409       .  A
C1071      C1072   1.400       .  A
C1071      F1076   1.357       .  S
C1072      C1073   1.406       .  A
C1072      H1077   1.083       .  S
C1073      C1074   1.410       .  A
C1074      F1078   1.358       .  S
C1075      C1080   1.409       .  A
C1075      C1084   1.405       .  A
C1080      C1081   1.401       .  A
C1080      F1085   1.358       .  S
C1081      C1082   1.407       .  A
C1081      H1086   1.084       .  S
C1082      C1083   1.410       .  A
C1083      C1084   1.397       .  A
C1083      F1087   1.357       .  S
C1084      H1088   1.083       .  S
C1089      C1090   1.405       .  A
C1089      C1094   1.400       .  A
C1089      H1099   1.084       .  S
C1090      C1095   1.484       .  S
C1090      C1091   1.406       .  A
C1091      C1092   1.397       .  A
C1091      F1096   1.357       .  S
C1092      C1093   1.406       .  A
C1092      H1097   1.083       .  S
C1093      C1094   1.411       .  A
C1094      F1098   1.358       .  S
C1095      C1100   1.407       .  A
C1095      C1104   1.404       .  A
C1100      C1101   1.400       .  A
C1100      F1105   1.357       .  S
C1101      C1102   1.407       .  A
C1101      H1106   1.084       .  S
C1102      C1103   1.408       .  A
C1103      C1104   1.396       .  A
C1103      F1107   1.357       .  S
C1104      H1108   1.084       .  S
C1109      C1110   1.408       .  A
C1109      C1114   1.403       .  A
C1109      H1119   1.082       .  S
C1110      C1115   1.492       .  S
C1110      C1111   1.408       .  A
C1111      C1112   1.397       .  A
C1111      F1116   1.358       .  S
C1112      C1113   1.406       .  A
C1112      H1117   1.083       .  S
C1113      C1114   1.408       .  A
C1114      F1118   1.357       .  S
C1115      C1120   1.407       .  A
C1115      C1124   1.408       .  A
C1120      C1121   1.397       .  A
C1120      F1125   1.357       .  S
C1121      C1122   1.408       .  A
C1121      H1126   1.083       .  S
C1122      C1123   1.409       .  A
C1123      C1124   1.402       .  A
C1123      F1127   1.357       .  S
C1124      H1128   1.083       .  S
C1129      C1130   1.400       .  A
C1129      C1134   1.392       .  A
C1129      H1139   1.084       .  S
C1130      C1135   1.480       .  S
C1130      C1131   1.407       .  A
C1131      C1132   1.408       .  A
C1131      F1136   1.357       .  S
C1132      C1133   1.407       .  A
C1132      H1137   1.084       .  S
C1133      C1134   1.408       .  A
C1134      F1138   1.358       .  S
C1135      C1140   1.404       .  A
C1135      C1144   1.405       .  A
C1140      C1141   1.393       .  A
C1140      F1145   1.358       .  S
C1141      C1142   1.406       .  A
C1141      H1146   1.084       .  S
C1142      C1143   1.410       .  A
C1143      C1144   1.406       .  A
C1143      F1147   1.357       .  S
C1144      H1148   1.084       .  S
C1149      C1150   1.409       .  A
C1149      C1154   1.401       .  A
C1149      H1159   1.083       .  S
C1150      C1155   1.499       .  S
C1150      C1151   1.411       .  A
C1151      C1152   1.401       .  A
C1151      F1156   1.357       .  S
C1152      C1153   1.407       .  A
C1152      H1157   1.083       .  S
C1153      C1154   1.409       .  A
C1154      F1158   1.357       .  S
C1155      C1160   1.410       .  A
C1155      C1164   1.410       .  A
C1160      C1161   1.397       .  A
C1160      F1165   1.357       .  S
C1161      C1162   1.405       .  A
C1161      H1166   1.083       .  S
C1162      C1163   1.409       .  A
C1163      C1164   1.404       .  A
C1163      F1167   1.357       .  S
C1164      H1168   1.082       .  S
C1169      C1170   1.401       .  A
C1169      C1174   1.392       .  A
C1169      H1179   1.084       .  S
C1170      C1175   1.482       .  S
C1170      C1171   1.409       .  A
C1171      C1172   1.405       .  A
C1171      F1176   1.357       .  S
C1172      C1173   1.404       .  A
C1172      H1177   1.083       .  S
C1173      C1174   1.409       .  A
C1174      F1178   1.359       .  S
C1175      C1180   1.405       .  A
C1175      C1184   1.403       .  A
C1180      C1181   1.398       .  A
C1180      F1185   1.358       .  S
C1181      C1182   1.409       .  A
C1181      H1186   1.083       .  S
C1182      C1183   1.411       .  A
C1183      C1184   1.401       .  A
C1183      F1187   1.357       .  S
C1184      H1188   1.084       .  S
C1189      C1190   1.404       .  A
C1189      C1194   1.407       .  A
C1189      H1199   1.084       .  S
C1190      C1195   1.483       .  S
C1190      C1191   1.404       .  A
C1191      C1192   1.394       .  A
C1191      F1196   1.358       .  S
C1192      C1193   1.406       .  A
C1192      H1197   1.084       .  S
C1193      C1194   1.412       .  A
C1194      F1198   1.357       .  S
C1195      C1200   1.403       .  A
C1195      C1204   1.407       .  A
C1200      C1201   1.392       .  A
C1200      F1205   1.358       .  S
C1201      C1202   1.405       .  A
C1201      H1206   1.084       .  S
C1202      C1203   1.410       .  A
C1203      C1204   1.409       .  A
C1203      F1207   1.357       .  S
C1204      H1208   1.083       .  S
C1209      C1210   1.404       .  A
C1209      C1214   1.405       .  A
C1209      H1219   1.083       .  S
C1210      C1215   1.474       .  S
C1210      C1211   1.401       .  A
C1211      C1212   1.393       .  A
C1211      F1216   1.358       .  S
C1212      C1213   1.406       .  A
C1212      H1217   1.084       .  S
C1213      C1214   1.409       .  A
C1214      F1218   1.357       .  S
C1215      C1220   1.403       .  A
C1215      C1224   1.403       .  A
C1220      C1221   1.394       .  A
C1220      F1225   1.358       .  S
C1221      C1222   1.404       .  A
C1221      H1226   1.084       .  S
C1222      C1223   1.408       .  A
C1223      C1224   1.404       .  A
C1223      F1227   1.357       .  S
C1224      H1228   1.083       .  S
C1229      C1230   1.405       .  A
C1229      C1234   1.399       .  A
C1229      H1239   1.083       .  S
C1230      C1235   1.494       .  S
C1230      C1231   1.410       .  A
C1231      C1232   1.403       .  A
C1231      F1236   1.357       .  S
C1232      C1233   1.407       .  A
C1232      H1237   1.083       .  S
C1233      C1234   1.410       .  A
C1234      F1238   1.358       .  S
C1235      C1240   1.409       .  A
C1235      C1244   1.406       .  A
C1240      C1241   1.401       .  A
C1240      F1245   1.358       .  S
C1241      C1242   1.408       .  A
C1241      H1246   1.083       .  S
C1242      C1243   1.410       .  A
C1243      C1244   1.401       .  A
C1243      F1247   1.357       .  S
C1244      H1248   1.083       .  S
C1249      C1250   1.403       .  A
C1249      C1254   1.402       .  A
C1249      H1259   1.084       .  S
C1250      C1255   1.480       .  S
C1250      C1251   1.404       .  A
C1251      C1252   1.398       .  A
C1251      F1256   1.358       .  S
C1252      C1253   1.407       .  A
C1252      H1257   1.084       .  S
C1253      C1254   1.411       .  A
C1254      F1258   1.357       .  S
C1255      C1260   1.405       .  A
C1255      C1264   1.400   1_455  A
C1260      C1261   1.404       .  A
C1260      F1265   1.357       .  S
C1261      C1262   1.409       .  A
C1261      H1266   1.084       .  S
C1262      C1263   1.414   1_455  A
C1263      C1264   1.395       .  A
C1263      F1267   1.358       .  S
C1264      H1268   1.085       .  S
C1269      C1270   1.406       .  A
C1269      C1274   1.399       .  A
C1269      H1279   1.084       .  S
C1270      C1275   1.488       .  S
C1270      C1271   1.408       .  A
C1271      C1272   1.399       .  A
C1271      F1276   1.357       .  S
C1272      C1273   1.405       .  A
C1272      H1277   1.084       .  S
C1273      C1274   1.409       .  A
C1274      F1278   1.358   1_565  S
C1275      C1280   1.407       .  A
C1275      C1284   1.405       .  A
C1280      C1281   1.399       .  A
C1280      F1285   1.357       .  S
C1281      C1282   1.407       .  A
C1281      H1286   1.084       .  S
C1282      C1283   1.409       .  A
C1283      C1284   1.398       .  A
C1283      F1287   1.357       .  S
C1284      H1288   1.083       .  S
C1289      C1290   1.402       .  A
C1289      C1294   1.403       .  A
C1289      H1299   1.084       .  S
C1290      C1295   1.472       .  S
C1290      C1291   1.402       .  A
C1291      C1292   1.393       .  A
C1291      F1296   1.358   1_545  S
C1292      C1293   1.406       .  A
C1292      H1297   1.084   1_545  S
C1293      C1294   1.409       .  A
C1294      F1298   1.357       .  S
C1295      C1300   1.405       .  A
C1295      C1304   1.400       .  A
C1300      C1301   1.403       .  A
C1300      F1305   1.357       .  S
C1301      C1302   1.405       .  A
C1301      H1306   1.083       .  S
C1302      C1303   1.407       .  A
C1303      C1304   1.393       .  A
C1303      F1307   1.358       .  S
C1304      H1308   1.084       .  S
C1309      C1310   1.405       .  A
C1309      C1314   1.397       .  A
C1309      H1319   1.083       .  S
C1310      C1315   1.490       .  S
C1310      C1311   1.409       .  A
C1311      C1312   1.399       .  A
C1311      F1316   1.357       .  S
C1312      C1313   1.406       .  A
C1312      H1317   1.083       .  S
C1313      C1314   1.411       .  A
C1314      F1318   1.358       .  S
C1315      C1320   1.410       .  A
C1315      C1324   1.407       .  A
C1320      C1321   1.394       .  A
C1320      F1325   1.358       .  S
C1321      C1322   1.404       .  A
C1321      H1326   1.083       .  S
C1322      C1323   1.408       .  A
C1323      C1324   1.402       .  A
C1323      F1327   1.357       .  S
C1324      H1328   1.083       .  S
