geometry optimzed in LAMMPS
_audit_creation_date              2020-11-30 
_audit_creation_method            'lammps2cif' 
_symmetry_space_group_name_H-M    'P1' 
_symmetry_Int_Tables_number       1 
_symmetry_cell_setting            triclinic 
loop_ 
_symmetry_equiv_pos_as_xyz 
  x,y,z 
_cell_length_a                    22.543192941775605 
_cell_length_b                    22.4644210893217 
_cell_length_c                    26.934957178178017 
_cell_angle_alpha                 88.69442614604802 
_cell_angle_beta                  88.92712684519502 
_cell_angle_gamma                 119.85340490515917 
loop_ 
_atom_site_label 
_atom_site_type_symbol 
_atom_site_fract_x 
_atom_site_fract_y 
_atom_site_fract_z 
_atom_site_charge 
C1          C  0.19250591  0.34790373  0.35631429     0.01760
C2          C  0.34151998  0.16541322  0.21112220     0.01760
C3          C  0.16400643  0.33013728  0.22048074     0.01760
C4          C  0.35067958  0.18026638  0.36538839     0.01760
O5          O  0.06332976  0.20752804  0.08994893    -0.83930
C6          C  0.30284668  0.40140665  0.46946047     1.16110
O7          O  0.05352220  0.08709900  0.03671431    -1.31740
O8          O  0.31493511  0.45636586  0.10002153    -0.85410
O9          O  0.16044976  0.20346641  0.09235683    -0.86080
O10         O  0.09885379  0.04745350  0.14254142    -0.74900
O11         O  0.43430259  0.08638256  0.08631398    -0.96990
C12         C  0.44070491  0.35630226  0.13392745     1.26150
O13         O  0.05371256  0.46598413  0.03762223    -1.31880
Mn14       Mn  0.01339232  0.00724905  0.48307270     1.82060
O15         O  0.47082400  0.41854191  0.14613930    -0.73980
O16         O  0.31632187  0.35731332  0.10244483    -0.83370
C17         C  0.43793214  0.35953220  0.44867502     1.17240
C18         C  0.30428081  0.40118904  0.12116460     1.11960
O19         O  0.09952498  0.05128327  0.43027894    -0.74920
O20         O  0.43289792  0.46608130  0.04037107    -1.28610
O21         O  0.17298379  0.08765232  0.48694745    -0.94130
C22         C  0.11587845  0.39975916  0.11219370     1.10680
Mn23       Mn  0.37404970  0.35593783  0.04387255     1.48570
O24         O  0.16181506  0.45498550  0.09185895    -0.83320
Mn25       Mn  0.16321998  0.14627332  0.03523842     1.49560
O26         O  0.06246984  0.20467434  0.47682721    -0.87200
C27         C  0.43990315  0.07980736  0.13092262     1.23870
C28         C  0.11813916  0.21531682  0.45725093     1.15930
Mn29       Mn  0.01338639  0.00547526  0.09339363     1.80970
O30         O  0.43249574  0.34732447  0.49357072    -0.92350
Mn31       Mn  0.00260486  0.14636357  0.03590020     1.49260
C32         C  0.11538670  0.21431406  0.11141054     1.12450
Mn33       Mn  0.00299576  0.35585677  0.03817216     1.49930
C34         C  0.11812325  0.40393649  0.45802122     1.15350
O35         O  0.17323296  0.08528418  0.08300647    -0.98160
O36         O  0.31186281  0.35608560  0.49037505    -0.87820
C37         C  0.16121586  0.07849649  0.12806562     1.26640
O38         O  0.43499577  0.34543737  0.08936029    -0.98540
O39         O  0.31332075  0.45654837  0.48784872    -0.85940
O40         O  0.06229945  0.35910274  0.47846056    -0.85550
O41         O  0.16336870  0.20821443  0.47884079    -0.85570
Mn42       Mn  0.37392940  0.01724341  0.04118752     1.47860
O43         O  0.47008398  0.42201196  0.43390221    -0.74050
C44         C  0.16159518  0.08274383  0.44248662     1.19690
O45         O  0.47049105  0.04800567  0.14439379    -0.72780
O46         O  0.47033297  0.05068182  0.43215297    -0.72390
Mn47       Mn  0.16344897  0.01684662  0.03501894     1.51060
O48         O  0.06474279  0.35389049  0.09118304    -0.84750
O49         O  0.43261385  0.08675630  0.49026305    -0.92270
O50         O  0.16275884  0.45717306  0.47823426    -0.87290
C51         C  0.43856473  0.08132952  0.44538727     1.17480
C52         C  0.41040760  0.11186184  0.40937043    -0.09020
C53         C  0.38487711  0.14069016  0.38506059    -0.10580
C54         C  0.22036930  0.11294426  0.40620009    -0.09020
C55         C  0.27629117  0.14171788  0.38342062    -0.10580
C56         C  0.40938772  0.30154576  0.41461575    -0.09020
C57         C  0.38368906  0.24833250  0.39113034    -0.10580
C58         C  0.12259674  0.23414118  0.16088230    -0.09020
C59         C  0.13360412  0.26445983  0.19823904    -0.10580
C60         C  0.13362779  0.36659599  0.19904750    -0.09020
C61         C  0.12222415  0.38761199  0.16206299    -0.10580
C62         C  0.27542662  0.38676509  0.16903427    -0.09020
C63         C  0.23405670  0.36563623  0.20196652    -0.10580
C64         C  0.37974476  0.13245119  0.18890560    -0.09020
C65         C  0.40914280  0.10718509  0.16601949    -0.10580
C66         C  0.21904811  0.10694478  0.16286020    -0.09020
C67         C  0.27179629  0.13260828  0.18720098    -0.10580
C68         C  0.38040405  0.24089083  0.19380951    -0.09020
C69         C  0.40986835  0.29692374  0.17046159    -0.10580
C70         C  0.35959754  0.19603557  0.30702086    -0.12180
C71         C  0.33290017  0.14992582  0.26950439    -0.27360
H72         H  0.38929610  0.24980647  0.29514669     0.16840
H73         H  0.30329670  0.09605361  0.28114419     0.17410
C74         C  0.13195051  0.23852820  0.40780444    -0.09180
C75         C  0.15526889  0.27728059  0.37322908    -0.10580
C76         C  0.13205634  0.39393844  0.40887527    -0.09020
C77         C  0.15418871  0.37940933  0.37372090    -0.10580
C78         C  0.28240511  0.39121939  0.42077757    -0.09020
C79         C  0.25416844  0.37806020  0.38284715    -0.10580
C80         C  0.15354060  0.32477624  0.27396813    -0.12180
C81         C  0.20603544  0.35551985  0.30343754    -0.27360
H82         H  0.10115741  0.29629906  0.28921674     0.16840
H83         H  0.25887576  0.38494041  0.28948996     0.17410
C84         C  0.19250569  0.34790504  0.85631431     0.01760
C85         C  0.34152102  0.16541364  0.71112190     0.01760
C86         C  0.16400891  0.33013806  0.72048053     0.01760
C87         C  0.35068008  0.18026660  0.86538829     0.01760
O88         O  0.06333015  0.20752817  0.58994927    -0.83930
C89         C  0.30284576  0.40140838  0.96946102     1.16110
O90         O  0.05352211  0.08709891  0.53671477    -1.31740
O91         O  0.31493542  0.45636375  0.60002078    -0.85410
O92         O  0.16045008  0.20346634  0.59235694    -0.86080
O93         O  0.09885400  0.04745352  0.64254186    -0.74900
O94         O  0.43430459  0.08638387  0.58631385    -0.96990
C95         C  0.44070765  0.35630205  0.63392616     1.26150
O96         O  0.05371354  0.46598487  0.53762232    -1.31880
Mn97       Mn  0.01339272  0.00724922  0.98307212     1.82060
O98         O  0.47082557  0.41854166  0.64613805    -0.73980
O99         O  0.31632450  0.35731237  0.60244480    -0.83370
C100        C  0.43793103  0.35953135  0.94867620     1.17240
C101        C  0.30428258  0.40118765  0.62116431     1.11960
O102        O  0.09952549  0.05128371  0.93027851    -0.74920
O103        O  0.43289896  0.46608100  0.54037021    -1.28610
O104        O  0.17298434  0.08765304  0.98694707    -0.94130
C105        C  0.11588134  0.39976080  0.61219318     1.10680
Mn106      Mn  0.37405166  0.35593739  0.54387189     1.48570
O107        O  0.16181742  0.45498723  0.59185827    -0.83320
Mn108      Mn  0.16321988  0.14627290  0.53523866     1.49560
O109        O  0.06246981  0.20467426  0.97682674    -0.87200
C110        C  0.43990488  0.07980844  0.63092248     1.23870
C111        C  0.11813947  0.21531732  0.95725065     1.15930
Mn112      Mn  0.01338620  0.00547530  0.59339421     1.80970
O113        O  0.43249381  0.34732344  0.99357196    -0.92350
Mn114      Mn  0.00260504  0.14636375  0.53590064     1.49260
C115        C  0.11538720  0.21431420  0.61141071     1.12450
Mn116      Mn  0.00299736  0.35585763  0.53817228     1.49930
C117        C  0.11812160  0.40393520  0.95802136     1.15350
O118        O  0.17323292  0.08528373  0.58300675    -0.98160
O119        O  0.31186250  0.35608733  0.99037491    -0.87820
C120        C  0.16121606  0.07849631  0.62806592     1.26640
O121        O  0.43499871  0.34543712  0.58935895    -0.98540
O122        O  0.31331940  0.45654962  0.98784985    -0.85940
O123        O  0.06229782  0.35910145  0.97846066    -0.85550
O124        O  0.16336901  0.20821509  0.97884066    -0.85570
Mn125      Mn  0.37393055  0.01724513  0.54118768     1.47860
O126        O  0.47008280  0.42201112  0.93390344    -0.74050
C127        C  0.16159568  0.08274441  0.94248623     1.19690
O128        O  0.47049226  0.04800627  0.64439364    -0.72780
O129        O  0.47033257  0.05068135  0.93215311    -0.72390
Mn130      Mn  0.16344817  0.01684575  0.53501925     1.51060
O131        O  0.06474503  0.35389222  0.59118303    -0.84750
O132        O  0.43261260  0.08675501  0.99026314    -0.92270
O133        O  0.16275746  0.45717140  0.97823461    -0.87290
C134        C  0.43856397  0.08132869  0.94538735     1.17480
C135        C  0.41040732  0.11186140  0.90937046    -0.09020
C136        C  0.38487726  0.14069007  0.88506053    -0.10580
C137        C  0.22036975  0.11294467  0.90619969    -0.09020
C138        C  0.27629161  0.14171813  0.88342025    -0.10580
C139        C  0.40938735  0.30154516  0.91461667    -0.09020
C140        C  0.38368931  0.24833240  0.89113067    -0.10580
C141        C  0.12259760  0.23414157  0.66088239    -0.09020
C142        C  0.13360566  0.26446048  0.69823902    -0.10580
C143        C  0.13363163  0.36659770  0.69904673    -0.09020
C144        C  0.12222808  0.38761376  0.66206223    -0.10580
C145        C  0.27542906  0.38676397  0.66903427    -0.09020
C146        C  0.23405943  0.36563576  0.70196676    -0.10580
C147        C  0.37974571  0.13245145  0.68890544    -0.09020
C148        C  0.40914414  0.10718576  0.66601934    -0.10580
C149        C  0.21904865  0.10694488  0.66286029    -0.09020
C150        C  0.27179716  0.13260863  0.68720078    -0.10580
C151        C  0.38040551  0.24089111  0.69380883    -0.09020
C152        C  0.40987048  0.29692365  0.67046044    -0.10580
C153        C  0.35959845  0.19603611  0.80702074    -0.12180
C154        C  0.33290124  0.14992645  0.76950416    -0.27360
H155        H  0.38929707  0.24980705  0.79514669     0.16840
H156        H  0.30329772  0.09605424  0.78114396     0.17410
C157        C  0.13195123  0.23852914  0.90780424    -0.09180
C158        C  0.15526956  0.27728177  0.87322897    -0.10580
C159        C  0.13205432  0.39393762  0.90887517    -0.09020
C160        C  0.15418714  0.37940937  0.87372059    -0.10580
C161        C  0.28240421  0.39122178  0.92077813    -0.09020
C162        C  0.25416781  0.37806243  0.88284762    -0.10580
C163        C  0.15354204  0.32477729  0.77396781    -0.12180
C164        C  0.20603619  0.35552163  0.80343764    -0.27360
H165        H  0.10115860  0.29629983  0.78921593     0.16840
H166        H  0.25887665  0.38494293  0.78949046     0.17410
C167        C  0.19250483  0.84790530  0.35631441     0.01760
C168        C  0.34152013  0.66541371  0.21112200     0.01760
C169        C  0.16400870  0.83013710  0.22048055     0.01760
C170        C  0.35068009  0.68026678  0.36538813     0.01760
O171        O  0.06333102  0.70752854  0.08994887    -0.83930
C172        C  0.30284623  0.90140886  0.46946081     1.16110
O173        O  0.05352241  0.58709905  0.03671438    -1.31740
O174        O  0.31493533  0.95636345  0.10002124    -0.85410
O175        O  0.16045075  0.70346639  0.09235652    -0.86080
O176        O  0.09885365  0.54745318  0.14254146    -0.74900
O177        O  0.43430331  0.58638376  0.08631408    -0.96990
C178        C  0.44070730  0.85630218  0.13392658     1.26150
O179        O  0.05371334  0.96598457  0.03762217    -1.31880
Mn180      Mn  0.01339296  0.50724950  0.48307227     1.82060
O181        O  0.47082541  0.91854177  0.14613850    -0.73980
O182        O  0.31632412  0.85731193  0.10244485    -0.83370
C183        C  0.43793194  0.85953217  0.44867518     1.17240
C184        C  0.30428240  0.90118722  0.12116458     1.11960
O185        O  0.09952563  0.55128383  0.43027858    -0.74920
O186        O  0.43289882  0.96608085  0.04037060    -1.28610
O187        O  0.17298453  0.58765322  0.48694708    -0.94130
C188        C  0.11588120  0.89976020  0.11219299     1.10680
Mn189      Mn  0.37405165  0.85593722  0.04387212     1.48570
O190        O  0.16181704  0.95498700  0.09185836    -0.83320
Mn191      Mn  0.16322025  0.64627277  0.03523829     1.49560
O192        O  0.06247044  0.70467480  0.47682692    -0.87200
C193        C  0.43990368  0.57980842  0.13092272     1.23870
C194        C  0.11813996  0.71531764  0.45725073     1.15930
Mn195      Mn  0.01338614  0.50547523  0.09339369     1.80970
O196        O  0.43249517  0.84732442  0.49357091    -0.92350
Mn197      Mn  0.00260569  0.64636417  0.03590027     1.49260
C198        C  0.11538787  0.71431415  0.11141039     1.12450
Mn199      Mn  0.00299735  0.85585735  0.03817201     1.49930
C200        C  0.11812113  0.90393503  0.45802176     1.15350
O201        O  0.17323275  0.58528350  0.08300649    -0.98160
O202        O  0.31186379  0.85608799  0.49037414    -0.87820
C203        C  0.16121573  0.57849613  0.12806563     1.26640
O204        O  0.43499855  0.84543728  0.08935938    -0.98540
O205        O  0.31331999  0.95654996  0.48784993    -0.85940
O206        O  0.06229800  0.85910098  0.47846169    -0.85550
O207        O  0.16336951  0.70821537  0.47884065    -0.85570
Mn208      Mn  0.37392944  0.51724494  0.04118778     1.47860
O209        O  0.47008367  0.92201191  0.43390239    -0.74050
C210        C  0.16159582  0.58274458  0.44248625     1.19690
O211        O  0.47049118  0.54800645  0.14439403    -0.72780
O212        O  0.47033287  0.55068159  0.43215268    -0.72390
Mn213      Mn  0.16344806  0.51684541  0.03501916     1.51060
O214        O  0.06474494  0.85389175  0.09118273    -0.84750
O215        O  0.43261297  0.58675524  0.49026273    -0.92270
O216        O  0.16275697  0.95717182  0.47823444    -0.87290
C217        C  0.43856426  0.58132892  0.44538695     1.17480
C218        C  0.41040752  0.61186162  0.40937010    -0.09020
C219        C  0.38487735  0.64069027  0.38506028    -0.10580
C220        C  0.22036985  0.61294490  0.40619970    -0.09020
C221        C  0.27629169  0.64171840  0.38342025    -0.10580
C222        C  0.40938790  0.80154582  0.41461584    -0.09020
C223        C  0.38368954  0.74833274  0.39113024    -0.10580
C224        C  0.12259806  0.73414096  0.16088224    -0.09020
C225        C  0.13360580  0.76445951  0.19823904    -0.10580
C226        C  0.13363140  0.86659653  0.19904643    -0.09020
C227        C  0.12222797  0.88761271  0.16206194    -0.10580
C228        C  0.27542901  0.88676340  0.16903457    -0.09020
C229        C  0.23405933  0.86563497  0.20196702    -0.10580
C230        C  0.37974475  0.63245156  0.18890558    -0.09020
C231        C  0.40914307  0.60718582  0.16601951    -0.10580
C232        C  0.21904809  0.60694487  0.16286014    -0.09020
C233        C  0.27179639  0.63260873  0.18720080    -0.10580
C234        C  0.38040470  0.74089117  0.19380905    -0.09020
C235        C  0.40986987  0.79692378  0.17046079    -0.10580
C236        C  0.35959814  0.69603614  0.30702063    -0.12180
C237        C  0.33290038  0.64992643  0.26950417    -0.27360
H238        H  0.38929699  0.74980703  0.29514648     0.16840
H239        H  0.30329663  0.59605425  0.28114401     0.17410
C240        C  0.13195152  0.73852933  0.40780430    -0.09180
C241        C  0.15526936  0.77728200  0.37322904    -0.10580
C242        C  0.13205309  0.89393715  0.40887546    -0.09020
C243        C  0.15418570  0.87940898  0.37372071    -0.10580
C244        C  0.28240371  0.89122235  0.42077814    -0.09020
C245        C  0.25416694  0.87806315  0.38284777    -0.10580
C246        C  0.15354150  0.82477661  0.27396781    -0.12180
C247        C  0.20603541  0.85552200  0.30343774    -0.27360
H248        H  0.10115804  0.79629857  0.28921582     0.16840
H249        H  0.25887586  0.88494406  0.28949064     0.17410
C250        C  0.19250702  0.84790450  0.85631422     0.01760
C251        C  0.34152073  0.66541358  0.71112189     0.01760
C252        C  0.16400851  0.83013761  0.72048069     0.01760
C253        C  0.35068004  0.68026659  0.86538821     0.01760
O254        O  0.06333028  0.70752837  0.58994911    -0.83930
C255        C  0.30284690  0.90140661  0.96946071     1.16110
O256        O  0.05352260  0.58709940  0.53671438    -1.31740
O257        O  0.31493677  0.95636567  0.60002159    -0.85410
O258        O  0.16045034  0.70346679  0.59235679    -0.86080
O259        O  0.09885429  0.54745403  0.64254147    -0.74900
O260        O  0.43430295  0.58638284  0.58631357    -0.96990
C261        C  0.44070658  0.85630210  0.63392637     1.26150
O262        O  0.05371263  0.96598416  0.53762278    -1.31880
Mn263      Mn  0.01339251  0.50724938  0.98307218     1.82060
O264        O  0.47082536  0.91854175  0.64613823    -0.73980
O265        O  0.31632324  0.85731296  0.60244416    -0.83370
C266        C  0.43793248  0.85953201  0.94867539     1.17240
C267        C  0.30428245  0.90118863  0.62116433     1.11960
O268        O  0.09952534  0.55128357  0.93027856    -0.74920
O269        O  0.43289910  0.96608155  0.54037041    -1.28610
O270        O  0.17298415  0.58765206  0.98694713    -0.94130
C271        C  0.11587993  0.89975996  0.61219395     1.10680
Mn272      Mn  0.37405108  0.85593807  0.54387167     1.48570
O273        O  0.16181625  0.95498596  0.59185863    -0.83320
Mn274      Mn  0.16322039  0.64627360  0.53523841     1.49560
O275        O  0.06247055  0.70467449  0.97682672    -0.87200
C276        C  0.43990349  0.57980753  0.63092219     1.23870
C277        C  0.11813994  0.71531699  0.95725051     1.15930
Mn278      Mn  0.01338676  0.50547577  0.59339377     1.80970
O279        O  0.43249595  0.84732416  0.99357111    -0.92350
Mn280      Mn  0.00260540  0.64636409  0.53590032     1.49260
C281        C  0.11538727  0.71431433  0.61141061     1.12450
Mn282      Mn  0.00299601  0.85585680  0.53817305     1.49930
C283        C  0.11812351  0.90393652  0.95802111     1.15350
O284        O  0.17323334  0.58528444  0.58300645    -0.98160
O285        O  0.31186315  0.85608553  0.99037508    -0.87820
C286        C  0.16121634  0.57849685  0.62806560     1.26640
O287        O  0.43499736  0.84543710  0.58935918    -0.98540
O288        O  0.31332044  0.95654799  0.98784923    -0.85940
O289        O  0.06229957  0.85910274  0.97846026    -0.85550
O290        O  0.16336936  0.70821441  0.97884038    -0.85570
Mn291      Mn  0.37392968  0.51724371  0.54118708     1.47860
O292        O  0.47008403  0.92201181  0.93390266    -0.74050
C293        C  0.16159555  0.58274372  0.94248628     1.19690
O294        O  0.47049122  0.54800568  0.64439334    -0.72780
O295        O  0.47033213  0.55068110  0.93215338    -0.72390
Mn296      Mn  0.16344916  0.51684680  0.53501890     1.51060
O297        O  0.06474311  0.85389149  0.59118421    -0.84750
O298        O  0.43261298  0.58675584  0.99026322    -0.92270
O299        O  0.16275899  0.95717298  0.97823432    -0.87290
C300        C  0.43856403  0.58132901  0.94538747     1.17480
C301        C  0.41040739  0.61186157  0.90937045    -0.09020
C302        C  0.38487729  0.64069015  0.88506045    -0.10580
C303        C  0.22036969  0.61294431  0.90619976    -0.09020
C304        C  0.27629157  0.64171808  0.88342031    -0.10580
C305        C  0.40938815  0.80154568  0.91461598    -0.09020
C306        C  0.38368953  0.74833260  0.89113034    -0.10580
C307        C  0.12259741  0.73414134  0.66088239    -0.09020
C308        C  0.13360532  0.76446007  0.69823911    -0.10580
C309        C  0.13363077  0.86659706  0.69904734    -0.09020
C310        C  0.12222696  0.88761320  0.66206300    -0.10580
C311        C  0.27542855  0.88676434  0.66903414    -0.09020
C312        C  0.23405884  0.86563565  0.70196655    -0.10580
C313        C  0.37974523  0.63245129  0.68890531    -0.09020
C314        C  0.40914319  0.60718520  0.66601912    -0.10580
C315        C  0.21904869  0.60694520  0.66286009    -0.09020
C316        C  0.27179698  0.63260874  0.68720076    -0.10580
C317        C  0.38040511  0.74089109  0.69380893    -0.09020
C318        C  0.40986973  0.79692372  0.67046064    -0.10580
C319        C  0.35959825  0.69603595  0.80702065    -0.12180
C320        C  0.33290093  0.64992627  0.76950411    -0.27360
H321        H  0.38929689  0.74980687  0.79514654     0.16840
H322        H  0.30329736  0.59605407  0.78114391     0.17410
C323        C  0.13195152  0.73852864  0.90780409    -0.09180
C324        C  0.15527008  0.77728128  0.87322888    -0.10580
C325        C  0.13205689  0.89393867  0.90887516    -0.09020
C326        C  0.15418956  0.87940985  0.87372080    -0.10580
C327        C  0.28240581  0.89121982  0.92077772    -0.09020
C328        C  0.25416940  0.87806095  0.88284721    -0.10580
C329        C  0.15354233  0.82477683  0.77396800    -0.12180
C330        C  0.20603692  0.85552084  0.80343751    -0.27360
H331        H  0.10115905  0.79629965  0.78921644     0.16840
H332        H  0.25887728  0.88494166  0.78949006     0.17410
C333        C  0.69250753  0.34790479  0.35631424     0.01760
C334        C  0.84152053  0.16541351  0.21112186     0.01760
C335        C  0.66400842  0.33013742  0.22048088     0.01760
C336        C  0.85068011  0.18026667  0.36538817     0.01760
O337        O  0.56332919  0.20752760  0.08994951    -0.83930
C338        C  0.80284722  0.40140733  0.46946076     1.16110
O339        O  0.55352200  0.08709891  0.03671466    -1.31740
O340        O  0.81493661  0.45636568  0.10002180    -0.85410
O341        O  0.66044943  0.20346636  0.09235710    -0.86080
O342        O  0.59885389  0.04745356  0.14254168    -0.74900
O343        O  0.93430300  0.08638295  0.08631357    -0.96990
C344        C  0.94070592  0.35630195  0.13392617     1.26150
O345        O  0.55371166  0.46598356  0.03762315    -1.31880
Mn346      Mn  0.51339280  0.00724916  0.48307220     1.82060
O347        O  0.97082462  0.41854158  0.14613808    -0.73980
O348        O  0.81632241  0.35731260  0.10244366    -0.83370
C349        C  0.93793213  0.35953220  0.44867538     1.17240
C350        C  0.80428195  0.40118831  0.12116418     1.11960
O351        O  0.59952538  0.05128304  0.43027837    -0.74920
O352        O  0.93289861  0.46608158  0.04037028    -1.28610
O353        O  0.67298425  0.08765135  0.48694685    -0.94130
C354        C  0.61587887  0.39975949  0.11219462     1.10680
Mn355      Mn  0.87405069  0.35593811  0.04387132     1.48570
O356        O  0.66181543  0.45498475  0.09185857    -0.83320
Mn357      Mn  0.66321976  0.14627336  0.03523866     1.49560
O358        O  0.56247144  0.20467498  0.47682708    -0.87200
C359        C  0.93990353  0.07980767  0.13092220     1.23870
C360        C  0.61814036  0.21531689  0.45725036     1.15930
Mn361      Mn  0.51338633  0.00547522  0.09339397     1.80970
O362        O  0.93249562  0.34732444  0.49357112    -0.92350
Mn363      Mn  0.50260445  0.14636330  0.03590069     1.49260
C364        C  0.61538629  0.21431378  0.11141096     1.12450
Mn365      Mn  0.50299446  0.35585609  0.03817398     1.49930
C366        C  0.61812362  0.40393668  0.45802091     1.15350
O367        O  0.67323295  0.08528424  0.08300665    -0.98160
O368        O  0.81186275  0.35608605  0.49037563    -0.87820
C369        C  0.66121595  0.07849653  0.12806580     1.26640
O370        O  0.93499680  0.34543699  0.08935897    -0.98540
O371        O  0.81332131  0.45654912  0.48784885    -0.85940
O372        O  0.56229943  0.35910299  0.47845979    -0.85550
O373        O  0.66336962  0.20821342  0.47883962    -0.85570
Mn374      Mn  0.87392966  0.01724376  0.04118717     1.47860
O375        O  0.97008398  0.42201198  0.43390258    -0.74050
C376        C  0.66159560  0.08274302  0.44248603     1.19690
O377        O  0.97049122  0.04800579  0.14439338    -0.72780
O378        O  0.97033246  0.05068139  0.43215327    -0.72390
Mn379      Mn  0.66344897  0.01684674  0.03501902     1.51060
O380        O  0.56474098  0.35389123  0.09118573    -0.84750
O381        O  0.93261286  0.08675555  0.49026322    -0.92270
O382        O  0.66275914  0.45717285  0.47823440    -0.87290
C383        C  0.93856405  0.08132896  0.44538745     1.17480
C384        C  0.91040747  0.11186166  0.40937046    -0.09020
C385        C  0.88487745  0.14069031  0.38506045    -0.10580
C386        C  0.72036970  0.11294382  0.40619950    -0.09020
C387        C  0.77629163  0.14171791  0.38342015    -0.10580
C388        C  0.90938784  0.30154578  0.41461601    -0.09020
C389        C  0.88368938  0.24833268  0.39113035    -0.10580
C390        C  0.62259653  0.23414096  0.16088269    -0.09020
C391        C  0.63360474  0.26445985  0.19823934    -0.10580
C392        C  0.63363087  0.36659720  0.19904780    -0.09020
C393        C  0.62222675  0.38761333  0.16206361    -0.10580
C394        C  0.77542815  0.38676375  0.16903400    -0.09020
C395        C  0.73405862  0.36563512  0.20196652    -0.10580
C396        C  0.87974510  0.13245130  0.18890526    -0.09020
C397        C  0.90914315  0.10718529  0.16601910    -0.10580
C398        C  0.71904833  0.10694489  0.16286027    -0.09020
C399        C  0.77179669  0.13260850  0.18720085    -0.10580
C400        C  0.88040472  0.24089098  0.19380880    -0.09020
C401        C  0.90986918  0.29692356  0.17046044    -0.10580
C402        C  0.85959832  0.19603602  0.30702061    -0.12180
C403        C  0.83290093  0.14992631  0.26950409    -0.27360
H404        H  0.88929690  0.24980694  0.29514649     0.16840
H405        H  0.80329742  0.09605411  0.28114393     0.17410
C406        C  0.63195165  0.23852881  0.40780402    -0.09180
C407        C  0.65527042  0.27728162  0.37322895    -0.10580
C408        C  0.63205730  0.39393905  0.40887499    -0.09020
C409        C  0.65419016  0.37941028  0.37372071    -0.10580
C410        C  0.78240625  0.39122019  0.42077775    -0.09020
C411        C  0.75416990  0.37806117  0.38284722    -0.10580
C412        C  0.65354257  0.32477675  0.27396818    -0.12180
C413        C  0.70603732  0.35552088  0.30343754    -0.27360
H414        H  0.60115934  0.29629971  0.28921674     0.16840
H415        H  0.75887763  0.38494160  0.28948998     0.17410
C416        C  0.69250187  0.34790401  0.85631473     0.01760
C417        C  0.84152081  0.16541405  0.71112188     0.01760
C418        C  0.66400959  0.33013761  0.72048038     0.01760
C419        C  0.85067993  0.18026684  0.86538815     0.01760
O420        O  0.56333190  0.20752774  0.58994934    -0.83930
C421        C  0.80284481  0.40140874  0.96946101     1.16110
O422        O  0.55352301  0.08709895  0.53671430    -1.31740
O423        O  0.81493560  0.45636481  0.60002094    -0.85410
O424        O  0.66045262  0.20346724  0.59235552    -0.86080
O425        O  0.59885448  0.04745341  0.64254127    -0.74900
O426        O  0.93430333  0.08638334  0.58631406    -0.96990
C427        C  0.94070778  0.35630273  0.63392653     1.26150
O428        O  0.55371338  0.46598453  0.53762208    -1.31880
Mn429      Mn  0.51339265  0.00724915  0.98307247     1.82060
O430        O  0.97082584  0.41854235  0.64613842    -0.73980
O431        O  0.81632513  0.35731368  0.60244547    -0.83370
C432        C  0.93793189  0.35953247  0.94867498     1.17240
C433        C  0.80428324  0.40118910  0.62116483     1.11960
O434        O  0.59952538  0.05128379  0.93027877    -0.74920
O435        O  0.93289921  0.46608155  0.54037045    -1.28610
O436        O  0.67298421  0.08765320  0.98694728    -0.94130
C437        C  0.61588091  0.39975962  0.61219268     1.10680
Mn438      Mn  0.87405177  0.35593798  0.54387237     1.48570
O439        O  0.66181660  0.45498684  0.59185845    -0.83320
Mn440      Mn  0.66322094  0.14627251  0.53523776     1.49560
O441        O  0.56246935  0.20467420  0.97682733    -0.87200
C442        C  0.93990388  0.07980813  0.63092269     1.23870
C443        C  0.61813871  0.21531683  0.95725097     1.15930
Mn444      Mn  0.51338678  0.00547528  0.59339370     1.80970
O445        O  0.93249505  0.34732474  0.99357069    -0.92350
Mn446      Mn  0.50260644  0.14636418  0.53590048     1.49260
C447        C  0.61538977  0.21431456  0.61140999     1.12450
Mn448      Mn  0.50299733  0.35585730  0.53817170     1.49930
C449        C  0.61811871  0.40393313  0.95802232     1.15350
O450        O  0.67323352  0.08528350  0.58300621    -0.98160
O451        O  0.81186382  0.35608841  0.99037363    -0.87820
C452        C  0.66121653  0.07849633  0.62806537     1.26640
O453        O  0.93499885  0.34543786  0.58935934    -0.98540
O454        O  0.81331879  0.45654978  0.98785034    -0.85940
O455        O  0.56229634  0.35909891  0.97846307    -0.85550
O456        O  0.66336852  0.20821496  0.97884087    -0.85570
Mn457      Mn  0.87392961  0.01724437  0.54118780     1.47860
O458        O  0.97008365  0.42201223  0.93390221    -0.74050
C459        C  0.66159558  0.08274461  0.94248644     1.19690
O460        O  0.97049148  0.04800621  0.64439393    -0.72780
O461        O  0.97033269  0.05068151  0.93215270    -0.72390
Mn462      Mn  0.66344844  0.01684507  0.53501899     1.51060
O463        O  0.56474504  0.35389120  0.59118208    -0.84750
O464        O  0.93261287  0.08675524  0.99026276    -0.92270
O465        O  0.66275476  0.45717049  0.97823431    -0.87290
C466        C  0.93856411  0.08132889  0.94538697     1.17480
C467        C  0.91040736  0.11186163  0.90937014    -0.09020
C468        C  0.88487721  0.14069033  0.88506033    -0.10580
C469        C  0.72036968  0.11294500  0.90619987    -0.09020
C470        C  0.77629150  0.14171848  0.88342033    -0.10580
C471        C  0.90938786  0.30154606  0.91461567    -0.09020
C472        C  0.88368943  0.24833287  0.89113020    -0.10580
C473        C  0.62260103  0.23414190  0.66088168    -0.09020
C474        C  0.63360850  0.26446037  0.69823848    -0.10580
C475        C  0.63363126  0.36659588  0.69904603    -0.09020
C476        C  0.62222742  0.38761169  0.66206157    -0.10580
C477        C  0.77543027  0.38676597  0.66903502    -0.09020
C478        C  0.73406060  0.36563714  0.70196754    -0.10580
C479        C  0.87974542  0.13245182  0.68890553    -0.09020
C480        C  0.90914353  0.10718580  0.66601951    -0.10580
C481        C  0.71904891  0.10694521  0.66285984    -0.09020
C482        C  0.77179716  0.13260911  0.68720056    -0.10580
C483        C  0.88040541  0.24089158  0.69380895    -0.09020
C484        C  0.90987050  0.29692426  0.67046074    -0.10580
C485        C  0.85959812  0.19603625  0.80702062    -0.12180
C486        C  0.83290076  0.14992664  0.76950407    -0.27360
H487        H  0.88929687  0.24980717  0.79514653     0.16840
H488        H  0.80329710  0.09605443  0.78114383     0.17410
C489        C  0.63194978  0.23852795  0.90780437    -0.09180
C490        C  0.65526700  0.27728051  0.87322899    -0.10580
C491        C  0.63204943  0.39393479  0.90887581    -0.09020
C492        C  0.65418173  0.37940674  0.87372082    -0.10580
C493        C  0.78240071  0.39122187  0.92077878    -0.09020
C494        C  0.75416348  0.37806232  0.88284863    -0.10580
C495        C  0.65354088  0.32477604  0.77396752    -0.12180
C496        C  0.70603379  0.35552168  0.80343819    -0.27360
H497        H  0.60115709  0.29629692  0.78921482     0.16840
H498        H  0.75887450  0.38494468  0.78949173     0.17410
C499        C  0.69250555  0.84790437  0.35631437     0.01760
C500        C  0.84152064  0.66541367  0.21112188     0.01760
C501        C  0.66400925  0.83013798  0.22048058     0.01760
C502        C  0.85068026  0.68026690  0.36538816     0.01760
O503        O  0.56333048  0.70752818  0.08994928    -0.83930
C504        C  0.80284596  0.90140766  0.46946110     1.16110
O505        O  0.55352184  0.58709866  0.03671489    -1.31740
O506        O  0.81493562  0.95636390  0.10002095    -0.85410
O507        O  0.66045022  0.70346597  0.09235695    -0.86080
O508        O  0.59885351  0.54745328  0.14254202    -0.74900
O509        O  0.93430411  0.58638396  0.08631379    -0.96990
C510        C  0.94070743  0.85630215  0.13392626     1.26150
O511        O  0.55371334  0.96598458  0.03762248    -1.31880
Mn512      Mn  0.51339282  0.50724925  0.48307208     1.82060
O513        O  0.97082544  0.91854176  0.14613816    -0.73980
O514        O  0.81632433  0.85731233  0.10244470    -0.83370
C515        C  0.93793181  0.85953193  0.44867573     1.17240
C516        C  0.80428268  0.90118770  0.12116437     1.11960
O517        O  0.59952565  0.55128379  0.43027849    -0.74920
O518        O  0.93289891  0.96608102  0.04037025    -1.28610
O519        O  0.67298449  0.58765302  0.48694705    -0.94130
C520        C  0.61588144  0.89976075  0.11219336     1.10680
Mn521      Mn  0.87405164  0.85593740  0.04387190     1.48570
O522        O  0.66181745  0.95498709  0.09185829    -0.83320
Mn523      Mn  0.66321967  0.64627226  0.03523876     1.49560
O524        O  0.56246983  0.70467424  0.47682680    -0.87200
C525        C  0.93990443  0.57980854  0.13092241     1.23870
C526        C  0.61813935  0.71531703  0.45725063     1.15930
Mn527      Mn  0.51338562  0.50547520  0.09339445     1.80970
O528        O  0.93249495  0.84732405  0.49357146    -0.92350
Mn529      Mn  0.50260522  0.64636391  0.03590065     1.49260
C530        C  0.61538750  0.71431408  0.11141070     1.12450
Mn531      Mn  0.50299741  0.85585735  0.03817249     1.49930
C532        C  0.61812160  0.90393462  0.45802137     1.15350
O533        O  0.67323245  0.58528292  0.08300689    -0.98160
O534        O  0.81186301  0.85608678  0.49037494    -0.87820
C535        C  0.66121558  0.57849572  0.12806606     1.26640
O536        O  0.93499859  0.84543724  0.08935906    -0.98540
O537        O  0.81331969  0.95654897  0.48784986    -0.85940
O538        O  0.56229786  0.85910096  0.47846076    -0.85550
O539        O  0.66336899  0.70821499  0.47884064    -0.85570
Mn540      Mn  0.87392996  0.51724506  0.04118776     1.47860
O541        O  0.97008350  0.92201171  0.43390299    -0.74050
C542        C  0.66159584  0.58274443  0.44248621     1.19690
O543        O  0.97049158  0.54800616  0.14439359    -0.72780
O544        O  0.97033306  0.55068181  0.43215281    -0.72390
Mn545      Mn  0.66344713  0.51684469  0.03501933     1.51060
O546        O  0.56474487  0.85389219  0.09118345    -0.84750
O547        O  0.93261350  0.58675586  0.49026281    -0.92270
O548        O  0.66275759  0.95717081  0.47823455    -0.87290
C549        C  0.93856470  0.58132939  0.44538704     1.17480
C550        C  0.91040789  0.61186198  0.40937016    -0.09020
C551        C  0.88487763  0.64069051  0.38506030    -0.10580
C552        C  0.72036995  0.61294481  0.40619969    -0.09020
C553        C  0.77629182  0.64171837  0.38342025    -0.10580
C554        C  0.90938785  0.80154569  0.41461624    -0.09020
C555        C  0.88368958  0.74833280  0.39113040    -0.10580
C556        C  0.62259802  0.73414156  0.16088235    -0.09020
C557        C  0.63360607  0.76446048  0.19823897    -0.10580
C558        C  0.63363202  0.86659768  0.19904682    -0.09020
C559        C  0.62222846  0.88761382  0.16206237    -0.10580
C560        C  0.77542938  0.88676403  0.16903438    -0.09020
C561        C  0.73405980  0.86563575  0.20196690    -0.10580
C562        C  0.87974534  0.63245155  0.18890539    -0.09020
C563        C  0.90914375  0.60718588  0.16601928    -0.10580
C564        C  0.71904818  0.60694452  0.16286041    -0.09020
C565        C  0.77179673  0.63260851  0.18720085    -0.10580
C566        C  0.88040507  0.74089113  0.19380882    -0.09020
C567        C  0.90987012  0.79692373  0.17046050    -0.10580
C568        C  0.85959838  0.69603628  0.30702062    -0.12180
C569        C  0.83290103  0.64992653  0.26950412    -0.27360
H570        H  0.88929692  0.74980720  0.29514649     0.16840
H571        H  0.80329758  0.59605434  0.28114398     0.17410
C572        C  0.63195087  0.73852846  0.40780414    -0.09180
C573        C  0.65526926  0.77728103  0.37322886    -0.10580
C574        C  0.63205417  0.89393696  0.40887519    -0.09020
C575        C  0.65418701  0.87940871  0.37372062    -0.10580
C576        C  0.78240400  0.89122082  0.42077832    -0.09020
C577        C  0.75416755  0.87806154  0.38284783    -0.10580
C578        C  0.65354222  0.82477702  0.27396782    -0.12180
C579        C  0.70603627  0.85552117  0.30343774    -0.27360
H580        H  0.60115873  0.79629955  0.28921585     0.16840
H581        H  0.75887678  0.88494245  0.28949067     0.17410
C582        C  0.69250594  0.84790378  0.85631436     0.01760
C583        C  0.84152020  0.66541340  0.71112204     0.01760
C584        C  0.66400712  0.83013693  0.72048075     0.01760
C585        C  0.85067906  0.68026624  0.86538838     0.01760
O586        O  0.56332971  0.70752791  0.58994899    -0.83930
C587        C  0.80284666  0.90140675  0.96946055     1.16110
O588        O  0.55352225  0.58709897  0.53671429    -1.31740
O589        O  0.81493559  0.95636489  0.60002161    -0.85410
O590        O  0.66044975  0.70346634  0.59235680    -0.86080
O591        O  0.59885386  0.54745348  0.64254139    -0.74900
O592        O  0.93430337  0.58638356  0.58631367    -0.96990
C593        C  0.94070626  0.85630221  0.63392696     1.26150
O594        O  0.55371296  0.96598394  0.53762222    -1.31880
Mn595      Mn  0.51339173  0.50724864  0.98307294     1.82060
O596        O  0.97082491  0.91854184  0.64613885    -0.73980
O597        O  0.81632297  0.85731265  0.60244480    -0.83370
C598        C  0.93793217  0.85953206  0.94867512     1.17240
C599        C  0.80428160  0.90118813  0.62116464     1.11960
O600        O  0.59952438  0.55128256  0.93027910    -0.74920
O601        O  0.93289852  0.96608122  0.54037085    -1.28610
O602        O  0.67298312  0.58765146  0.98694759    -0.94130
C603        C  0.61587923  0.89975910  0.61219363     1.10680
Mn604      Mn  0.87405077  0.85593768  0.54387229     1.48570
O605        O  0.66181571  0.95498543  0.59185879    -0.83320
Mn606      Mn  0.66322002  0.64627328  0.53523839     1.49560
O607        O  0.56247020  0.70467429  0.97682721    -0.87200
C608        C  0.93990382  0.57980818  0.63092231     1.23870
C609        C  0.61813948  0.71531662  0.95725096     1.15930
Mn610      Mn  0.51338644  0.50547520  0.59339358     1.80970
O611        O  0.93249580  0.84732434  0.99357084    -0.92350
Mn612      Mn  0.50260487  0.64636351  0.53590023     1.49260
C613        C  0.61538663  0.71431385  0.61141057     1.12450
Mn614      Mn  0.50299606  0.85585658  0.53817232     1.49930
C615        C  0.61812325  0.90393634  0.95802139     1.15350
O616        O  0.67323295  0.58528414  0.58300643    -0.98160
O617        O  0.81186302  0.85608574  0.99037493    -0.87820
C618        C  0.66121593  0.57849651  0.62806557     1.26640
O619        O  0.93499725  0.84543731  0.58935977    -0.98540
O620        O  0.81332052  0.95654831  0.98784895    -0.85940
O621        O  0.56229971  0.85910240  0.97846093    -0.85550
O622        O  0.66336884  0.70821392  0.97884082    -0.85570
Mn623      Mn  0.87393009  0.51724448  0.54118720     1.47860
O624        O  0.97008388  0.92201182  0.93390231    -0.74050
C625        C  0.66159458  0.58274312  0.94248675     1.19690
O626        O  0.97049161  0.54800639  0.64439348    -0.72780
O627        O  0.97033263  0.55068191  0.93215292    -0.72390
Mn628      Mn  0.66344896  0.51684654  0.53501895     1.51060
O629        O  0.56474327  0.85389051  0.59118319    -0.84750
O630        O  0.93261308  0.58675601  0.99026298    -0.92270
O631        O  0.66275869  0.95717319  0.97823425    -0.87290
C632        C  0.93856404  0.58132927  0.94538720     1.17480
C633        C  0.91040699  0.61186161  0.90937034    -0.09020
C634        C  0.88487657  0.64068998  0.88506050    -0.10580
C635        C  0.72036876  0.61294380  0.90620020    -0.09020
C636        C  0.77629062  0.64171762  0.88342066    -0.10580
C637        C  0.90938751  0.80154558  0.91461585    -0.09020
C638        C  0.88368863  0.74833233  0.89113040    -0.10580
C639        C  0.62259665  0.73414078  0.66088238    -0.09020
C640        C  0.63360430  0.76445941  0.69823914    -0.10580
C641        C  0.63362903  0.86659605  0.69904733    -0.09020
C642        C  0.62222535  0.88761203  0.66206284    -0.10580
C643        C  0.77542738  0.88676395  0.66903434    -0.09020
C644        C  0.73405746  0.86563528  0.70196662    -0.10580
C645        C  0.87974497  0.63245136  0.68890544    -0.09020
C646        C  0.90914321  0.60718557  0.66601923    -0.10580
C647        C  0.71904825  0.60694491  0.66286009    -0.09020
C648        C  0.77179651  0.63260850  0.68720079    -0.10580
C649        C  0.88040452  0.74089097  0.69380926    -0.09020
C650        C  0.90986926  0.79692373  0.67046114    -0.10580
C651        C  0.85959714  0.69603558  0.80702082    -0.12180
C652        C  0.83290023  0.64992592  0.76950424    -0.27360
H653        H  0.88929550  0.74980652  0.79514673     0.16840
H654        H  0.80329693  0.59605367  0.78114398     0.17410
C655        C  0.63195097  0.73852815  0.90780450    -0.09180
C656        C  0.65526919  0.77728062  0.87322915    -0.10580
C657        C  0.63205619  0.89393821  0.90887541    -0.09020
C658        C  0.65418848  0.87940911  0.87372097    -0.10580
C659        C  0.78240509  0.89121964  0.92077766    -0.09020
C660        C  0.75416843  0.87806046  0.88284725    -0.10580
C661        C  0.65354100  0.82477608  0.77396812    -0.12180
C662        C  0.70603566  0.85552001  0.80343761    -0.27360
H663        H  0.60115775  0.79629886  0.78921661     0.16840
H664        H  0.75887599  0.88494079  0.78949011     0.17410
loop_ 
_geom_bond_atom_site_label_1 
_geom_bond_atom_site_label_2 
_geom_bond_distance 
_geom_bond_site_symmetry_2 
_ccdc_geom_bond_type 
C1           C75   1.434       .  S
C1           C77   1.441       .  S
C1           C79   1.423       .  S
C1           C81   1.439       .  S
C2           C64   1.512       .  S
C2           C67   1.528       .  S
C2           C68   1.526       .  S
C2           C71   1.590       .  S
C3           C59   1.433       .  S
C3           C60   1.423       .  S
C3           C63   1.441       .  S
C3           C80   1.448       .  S
C4           C53   1.530       .  S
C4           C55   1.517       .  S
C4           C57   1.519       .  S
C4           C70   1.590       .  S
O5           C32   1.259       .  A
O5          Mn31   2.043       .  S
C6           O39   1.256       .  A
C6           O36   1.257       .  A
C6           C78   1.384       .  S
O7          Mn25   2.146       .  S
O7          Mn29   2.163       .  S
O7          Mn31   2.147       .  S
O7          Mn97   2.162   1_554  S
O8           C18   1.259       .  A
O8         Mn208   2.040       .  S
O9           C32   1.260       .  A
O9          Mn25   2.046       .  S
O10          C37   1.267       .  A
O10         Mn29   2.167       .  S
O11         Mn42   1.946       .  S
O11        Mn363   1.950       .  S
O11          C27   1.224       .  S
C12          O15   1.268       .  A
C12          C69   1.491       .  S
C12          O38   1.227       .  S
O13         Mn33   2.147       .  S
O13        Mn263   2.161   1_554  S
O13        Mn213   2.146       .  S
O13        Mn195   2.164       .  S
Mn14         O19   2.166       .  S
Mn14        O541   2.163   1_445  S
Mn14        O378   2.170   1_455  S
Mn14         O90   2.162       .  S
Mn14        O262   2.161   1_545  S
Mn14        O601   2.165   1_445  S
O15        Mn527   2.170       .  S
O16          C18   1.258       .  A
O16         Mn23   2.037       .  S
C17          O43   1.267       .  A
C17          C56   1.481       .  S
C17          O30   1.224       .  S
C18          C62   1.389       .  S
O19          C44   1.268       .  A
O20         Mn23   2.147       .  S
O20        Mn595   2.165   1_554  S
O20        Mn208   2.147       .  S
O20        Mn527   2.161       .  S
O21        Mn108   1.957       .  S
O21        Mn130   1.951       .  S
O21          C44   1.225       .  S
C22          O48   1.257       .  A
C22          O24   1.257       .  A
C22          C61   1.389       .  S
Mn23        O119   2.030   1_554  S
Mn23         O38   1.954       .  S
Mn23        O113   1.951   1_554  S
O24        Mn213   2.031       .  S
Mn25        O124   2.035   1_554  S
Mn25         O35   1.955       .  S
Mn25        O104   1.957   1_554  S
O26          C28   1.257       .  A
O26        Mn114   2.033       .  S
C27          O45   1.267       .  A
C27          C65   1.476       .  S
C28          O41   1.258       .  A
C28          C74   1.391       .  S
Mn29        O513   2.170   1_445  S
Mn29        O377   2.160   1_455  S
Mn29        O179   2.164   1_545  S
Mn29        O518   2.161   1_445  S
O30        Mn106   1.951       .  S
O30        Mn448   1.945       .  S
Mn31        O109   2.033   1_554  S
Mn31        O343   1.950   1_455  S
Mn31        O464   1.959   1_454  S
C32          C58   1.401       .  S
Mn33         O48   2.028       .  S
Mn33        O123   2.048   1_554  S
Mn33        O445   1.945   1_454  S
Mn33        O370   1.963   1_455  S
C34          O40   1.260       .  A
C34          O50   1.261       .  A
C34          C76   1.403       .  S
O35         Mn47   1.961       .  S
O35          C37   1.228       .  S
O36        Mn106   2.030       .  S
C37          C66   1.493       .  S
O38        Mn365   1.963       .  S
O39        Mn291   2.024       .  S
O40        Mn116   2.049       .  S
O41        Mn108   2.035       .  S
Mn42        O174   2.040   1_545  S
Mn42        O288   2.024   1_544  S
Mn42        O186   2.147   1_545  S
Mn42        O132   1.962   1_554  S
O43        Mn512   2.163       .  S
C44          C54   1.482       .  S
O45        Mn361   2.160       .  S
O46          C51   1.267       .  A
O46        Mn346   2.170       .  S
Mn47        O190   2.031   1_545  S
Mn47        O299   2.052   1_544  S
Mn47        O179   2.146   1_545  S
Mn47        O104   1.951   1_554  S
O49        Mn446   1.959       .  S
O49        Mn125   1.962       .  S
O49          C51   1.229       .  S
O50        Mn296   2.052       .  S
C51          C52   1.497       .  S
C52          C53   1.243       .  T
C54          C55   1.235       .  T
C56          C57   1.234       .  T
C58          C59   1.188       .  T
C60          C61   1.179       .  T
C62          C63   1.179       .  T
C64          C65   1.231       .  T
C66          C67   1.241       .  T
C68          C69   1.240       .  T
C70          C71   1.381       .  D
C70          H72   1.086       .  S
C71          H73   1.086       .  S
C74          C75   1.179       .  T
C76          C77   1.188       .  T
C78          C79   1.178       .  T
C80          C81   1.324       .  D
C80          H82   1.091       .  S
C81          H83   1.089       .  S
C84         C158   1.434       .  S
C84         C160   1.441       .  S
C84         C162   1.423       .  S
C84         C164   1.439       .  S
C85         C147   1.512       .  S
C85         C150   1.528       .  S
C85         C151   1.526       .  S
C85         C154   1.590       .  S
C86         C142   1.433       .  S
C86         C143   1.423       .  S
C86         C146   1.441       .  S
C86         C163   1.448       .  S
C87         C136   1.530       .  S
C87         C138   1.517       .  S
C87         C140   1.519       .  S
C87         C153   1.590       .  S
O88         C115   1.259       .  A
O88        Mn114   2.043       .  S
C89         O122   1.256       .  A
C89         O119   1.257       .  A
C89         C161   1.384       .  S
O90        Mn108   2.146       .  S
O90        Mn112   2.163       .  S
O90        Mn114   2.147       .  S
O91         C101   1.259       .  A
O91        Mn291   2.040       .  S
O92         C115   1.260       .  A
O92        Mn108   2.046       .  S
O93         C120   1.267       .  A
O93        Mn112   2.167       .  S
O94        Mn125   1.946       .  S
O94        Mn446   1.950       .  S
O94         C110   1.224       .  S
C95          O98   1.268       .  A
C95         C152   1.491       .  S
C95         O121   1.227       .  S
O96        Mn116   2.147       .  S
O96        Mn180   2.161       .  S
O96        Mn296   2.146       .  S
O96        Mn278   2.164       .  S
Mn97        O624   2.163   1_445  S
Mn97        O102   2.166       .  S
Mn97        O461   2.170   1_455  S
Mn97        O179   2.161   1_546  S
Mn97        O518   2.165   1_446  S
O98        Mn610   2.170       .  S
O99         C101   1.258       .  A
O99        Mn106   2.037       .  S
C100        O126   1.267       .  A
C100        C139   1.481       .  S
C100        O113   1.224       .  S
C101        C145   1.389       .  S
O102        C127   1.268       .  A
O103       Mn512   2.165       .  S
O103       Mn106   2.147       .  S
O103       Mn291   2.147       .  S
O103       Mn610   2.161       .  S
O104        C127   1.225       .  S
C105        O131   1.257       .  A
C105        O107   1.257       .  A
C105        C144   1.389       .  S
Mn106       O121   1.954       .  S
O107       Mn296   2.031       .  S
Mn108       O118   1.955       .  S
O109        C111   1.257       .  A
C110        O128   1.267       .  A
C110        C148   1.476       .  S
C111        O124   1.258       .  A
C111        C157   1.391       .  S
Mn112       O596   2.170   1_445  S
Mn112       O460   2.160   1_455  S
Mn112       O262   2.164   1_545  S
Mn112       O601   2.161   1_445  S
O113       Mn365   1.945   1_556  S
Mn114       O426   1.950   1_455  S
Mn114       O381   1.959   1_455  S
C115        C141   1.401       .  S
Mn116       O131   2.028       .  S
Mn116       O362   1.945   1_455  S
Mn116       O453   1.963   1_455  S
C117        O123   1.260       .  A
C117        O133   1.261       .  A
C117        C159   1.403       .  S
O118       Mn130   1.961       .  S
O118        C120   1.228       .  S
C120        C149   1.493       .  S
O121       Mn448   1.963       .  S
O122       Mn208   2.024   1_556  S
Mn125       O257   2.040   1_545  S
Mn125       O205   2.024   1_545  S
Mn125       O269   2.147   1_545  S
O126       Mn595   2.163       .  S
C127        C137   1.482       .  S
O128       Mn444   2.160       .  S
O129        C134   1.267       .  A
O129       Mn429   2.170       .  S
Mn130       O273   2.031   1_545  S
Mn130       O216   2.052   1_545  S
Mn130       O262   2.146   1_545  S
O132       Mn363   1.959   1_556  S
O132        C134   1.229       .  S
O133       Mn213   2.052   1_556  S
C134        C135   1.497       .  S
C135        C136   1.243       .  T
C137        C138   1.235       .  T
C139        C140   1.234       .  T
C141        C142   1.188       .  T
C143        C144   1.179       .  T
C145        C146   1.179       .  T
C147        C148   1.231       .  T
C149        C150   1.241       .  T
C151        C152   1.240       .  T
C153        C154   1.381       .  D
C153        H155   1.086       .  S
C154        H156   1.086       .  S
C157        C158   1.179       .  T
C159        C160   1.188       .  T
C161        C162   1.178       .  T
C163        C164   1.324       .  D
C163        H165   1.091       .  S
C164        H166   1.089       .  S
C167        C241   1.434       .  S
C167        C243   1.441       .  S
C167        C245   1.423       .  S
C167        C247   1.439       .  S
C168        C230   1.512       .  S
C168        C233   1.528       .  S
C168        C234   1.526       .  S
C168        C237   1.590       .  S
C169        C225   1.433       .  S
C169        C226   1.423       .  S
C169        C229   1.441       .  S
C169        C246   1.448       .  S
C170        C219   1.530       .  S
C170        C221   1.517       .  S
C170        C223   1.519       .  S
C170        C236   1.590       .  S
O171        C198   1.259       .  A
O171       Mn197   2.043       .  S
C172        O205   1.256       .  A
C172        O202   1.257       .  A
C172        C244   1.384       .  S
O173       Mn263   2.162   1_554  S
O173       Mn191   2.146       .  S
O173       Mn195   2.163       .  S
O173       Mn197   2.147       .  S
O174        C184   1.259       .  A
O175        C198   1.260       .  A
O175       Mn191   2.046       .  S
O176        C203   1.267       .  A
O176       Mn195   2.167       .  S
O177       Mn208   1.946       .  S
O177       Mn529   1.950       .  S
O177        C193   1.224       .  S
C178        O181   1.268       .  A
C178        C235   1.491       .  S
C178        O204   1.227       .  S
O179       Mn199   2.147       .  S
Mn180       O375   2.163   1_455  S
Mn180       O185   2.166       .  S
Mn180       O544   2.170   1_455  S
Mn180       O256   2.162       .  S
Mn180       O435   2.165   1_455  S
O181       Mn361   2.170   1_565  S
O182        C184   1.258       .  A
O182       Mn189   2.037       .  S
C183        O209   1.267       .  A
C183        C222   1.481       .  S
C183        O196   1.224       .  S
C184        C228   1.389       .  S
O185        C210   1.268       .  A
O186       Mn429   2.165   1_564  S
O186       Mn189   2.147       .  S
O186       Mn361   2.161   1_565  S
O187       Mn274   1.957       .  S
O187       Mn296   1.951       .  S
O187        C210   1.225       .  S
C188        O214   1.257       .  A
C188        O190   1.257       .  A
C188        C227   1.389       .  S
Mn189       O285   2.030   1_554  S
Mn189       O204   1.954       .  S
Mn189       O279   1.951   1_554  S
Mn191       O290   2.035   1_554  S
Mn191       O270   1.957   1_554  S
Mn191       O201   1.955       .  S
O192        C194   1.257       .  A
O192       Mn280   2.033       .  S
C193        O211   1.267       .  A
C193        C231   1.476       .  S
C194        O207   1.258       .  A
C194        C240   1.391       .  S
Mn195       O347   2.170   1_455  S
Mn195       O543   2.160   1_455  S
Mn195       O352   2.161   1_455  S
O196       Mn272   1.951       .  S
O196       Mn614   1.945       .  S
Mn197       O275   2.033   1_554  S
Mn197       O509   1.950   1_455  S
Mn197       O630   1.959   1_454  S
C198        C224   1.401       .  S
Mn199       O289   2.049   1_554  S
Mn199       O214   2.028       .  S
Mn199       O611   1.945   1_454  S
Mn199       O536   1.963   1_455  S
C200        O206   1.260       .  A
C200        O216   1.261       .  A
C200        C242   1.403       .  S
O201       Mn213   1.961       .  S
O201        C203   1.228       .  S
O202       Mn272   2.030       .  S
C203        C232   1.493       .  S
O204       Mn531   1.963       .  S
O206       Mn282   2.048       .  S
O207       Mn274   2.035       .  S
Mn208       O298   1.962   1_554  S
O209       Mn346   2.163   1_565  S
C210        C220   1.482       .  S
O211       Mn527   2.160       .  S
O212        C217   1.267       .  A
O212       Mn512   2.170       .  S
Mn213       O270   1.951   1_554  S
O215       Mn612   1.959       .  S
O215       Mn291   1.962       .  S
O215        C217   1.229       .  S
C217        C218   1.497       .  S
C218        C219   1.243       .  T
C220        C221   1.235       .  T
C222        C223   1.234       .  T
C224        C225   1.188       .  T
C226        C227   1.179       .  T
C228        C229   1.179       .  T
C230        C231   1.231       .  T
C232        C233   1.241       .  T
C234        C235   1.240       .  T
C236        C237   1.381       .  D
C236        H238   1.086       .  S
C237        H239   1.086       .  S
C240        C241   1.179       .  T
C242        C243   1.188       .  T
C244        C245   1.178       .  T
C246        C247   1.324       .  D
C246        H248   1.091       .  S
C247        H249   1.089       .  S
C250        C324   1.434       .  S
C250        C326   1.441       .  S
C250        C328   1.423       .  S
C250        C330   1.439       .  S
C251        C313   1.512       .  S
C251        C316   1.528       .  S
C251        C317   1.526       .  S
C251        C320   1.590       .  S
C252        C308   1.433       .  S
C252        C309   1.423       .  S
C252        C312   1.441       .  S
C252        C329   1.448       .  S
C253        C302   1.530       .  S
C253        C304   1.517       .  S
C253        C306   1.519       .  S
C253        C319   1.590       .  S
O254        C281   1.259       .  A
O254       Mn280   2.043       .  S
C255        O288   1.256       .  A
C255        O285   1.257       .  A
C255        C327   1.384       .  S
O256       Mn274   2.146       .  S
O256       Mn278   2.163       .  S
O256       Mn280   2.147       .  S
O257        C267   1.259       .  A
O258        C281   1.260       .  A
O258       Mn274   2.046       .  S
O259        C286   1.267       .  A
O259       Mn278   2.167       .  S
O260       Mn291   1.946       .  S
O260       Mn612   1.950       .  S
O260        C276   1.224       .  S
C261        O264   1.268       .  A
C261        C318   1.491       .  S
C261        O287   1.227       .  S
O262       Mn282   2.147       .  S
Mn263       O458   2.163   1_455  S
Mn263       O268   2.166       .  S
Mn263       O627   2.170   1_455  S
Mn263       O352   2.165   1_456  S
O264       Mn444   2.170   1_565  S
O265        C267   1.258       .  A
O265       Mn272   2.037       .  S
C266        O292   1.267       .  A
C266        C305   1.481       .  S
C266        O279   1.224       .  S
C267        C311   1.389       .  S
O268        C293   1.268       .  A
O269       Mn346   2.165   1_565  S
O269       Mn272   2.147       .  S
O269       Mn444   2.161   1_565  S
O270        C293   1.225       .  S
C271        O297   1.257       .  A
C271        O273   1.257       .  A
C271        C310   1.389       .  S
Mn272       O287   1.954       .  S
Mn274       O284   1.955       .  S
O275        C277   1.257       .  A
C276        O294   1.267       .  A
C276        C314   1.476       .  S
C277        O290   1.258       .  A
C277        C323   1.391       .  S
Mn278       O430   2.170   1_455  S
Mn278       O626   2.160   1_455  S
Mn278       O435   2.161   1_455  S
O279       Mn531   1.945   1_556  S
Mn280       O592   1.950   1_455  S
Mn280       O547   1.959   1_455  S
C281        C307   1.401       .  S
Mn282       O297   2.028       .  S
Mn282       O528   1.945   1_455  S
Mn282       O619   1.963   1_455  S
C283        O289   1.260       .  A
C283        O299   1.261       .  A
C283        C325   1.403       .  S
O284       Mn296   1.961       .  S
O284        C286   1.228       .  S
C286        C315   1.493       .  S
O287       Mn614   1.963       .  S
O292       Mn429   2.163   1_565  S
C293        C303   1.482       .  S
O294       Mn610   2.160       .  S
O295        C300   1.267       .  A
O295       Mn595   2.170       .  S
O298       Mn529   1.959   1_556  S
O298        C300   1.229       .  S
C300        C301   1.497       .  S
C301        C302   1.243       .  T
C303        C304   1.235       .  T
C305        C306   1.234       .  T
C307        C308   1.188       .  T
C309        C310   1.179       .  T
C311        C312   1.179       .  T
C313        C314   1.231       .  T
C315        C316   1.241       .  T
C317        C318   1.240       .  T
C319        C320   1.381       .  D
C319        H321   1.086       .  S
C320        H322   1.086       .  S
C323        C324   1.179       .  T
C325        C326   1.188       .  T
C327        C328   1.178       .  T
C329        C330   1.324       .  D
C329        H331   1.091       .  S
C330        H332   1.089       .  S
C333        C407   1.434       .  S
C333        C409   1.441       .  S
C333        C411   1.423       .  S
C333        C413   1.439       .  S
C334        C396   1.512       .  S
C334        C399   1.528       .  S
C334        C400   1.526       .  S
C334        C403   1.590       .  S
C335        C391   1.433       .  S
C335        C392   1.423       .  S
C335        C395   1.441       .  S
C335        C412   1.448       .  S
C336        C385   1.530       .  S
C336        C387   1.517       .  S
C336        C389   1.519       .  S
C336        C402   1.590       .  S
O337        C364   1.259       .  A
O337       Mn363   2.043       .  S
C338        O371   1.256       .  A
C338        O368   1.257       .  A
C338        C410   1.384       .  S
O339       Mn429   2.162   1_554  S
O339       Mn357   2.146       .  S
O339       Mn361   2.163       .  S
O339       Mn363   2.147       .  S
O340        C350   1.259       .  A
O340       Mn540   2.040       .  S
O341        C364   1.260       .  A
O341       Mn357   2.046       .  S
O342        C369   1.267       .  A
O342       Mn361   2.167       .  S
O343       Mn374   1.946       .  S
O343        C359   1.224       .  S
C344        O347   1.268       .  A
C344        C401   1.491       .  S
C344        O370   1.227       .  S
O345       Mn365   2.147       .  S
O345       Mn595   2.161   1_554  S
O345       Mn545   2.146       .  S
O345       Mn527   2.164       .  S
Mn346       O351   2.166       .  S
Mn346       O422   2.162       .  S
Mn346       O594   2.161   1_545  S
O348        C350   1.258       .  A
O348       Mn355   2.037       .  S
C349        O375   1.267       .  A
C349        C388   1.481       .  S
C349        O362   1.224       .  S
C350        C394   1.389       .  S
O351        C376   1.268       .  A
O352       Mn355   2.147       .  S
O352       Mn540   2.147       .  S
O353       Mn440   1.957       .  S
O353       Mn462   1.951       .  S
O353        C376   1.225       .  S
C354        O380   1.257       .  A
C354        O356   1.257       .  A
C354        C393   1.389       .  S
Mn355       O451   2.030   1_554  S
Mn355       O370   1.954       .  S
Mn355       O445   1.951   1_554  S
O356       Mn545   2.031       .  S
Mn357       O456   2.035   1_554  S
Mn357       O436   1.957   1_554  S
Mn357       O367   1.955       .  S
O358        C360   1.257       .  A
O358       Mn446   2.033       .  S
C359        O377   1.267       .  A
C359        C397   1.476       .  S
C360        O373   1.258       .  A
C360        C406   1.391       .  S
Mn361       O511   2.164   1_545  S
O362       Mn438   1.951       .  S
Mn363       O441   2.033   1_554  S
C364        C390   1.401       .  S
Mn365       O455   2.048   1_554  S
Mn365       O380   2.028       .  S
C366        O372   1.260       .  A
C366        O382   1.261       .  A
C366        C408   1.403       .  S
O367       Mn379   1.961       .  S
O367        C369   1.228       .  S
O368       Mn438   2.030       .  S
C369        C398   1.493       .  S
O371       Mn623   2.024       .  S
O372       Mn448   2.049       .  S
O373       Mn440   2.035       .  S
Mn374       O506   2.040   1_545  S
Mn374       O620   2.024   1_544  S
Mn374       O518   2.147   1_545  S
Mn374       O464   1.962   1_554  S
C376        C386   1.482       .  S
O378        C383   1.267       .  A
Mn379       O522   2.031   1_545  S
Mn379       O631   2.052   1_544  S
Mn379       O511   2.146   1_545  S
Mn379       O436   1.951   1_554  S
O381       Mn457   1.962       .  S
O381        C383   1.229       .  S
O382       Mn628   2.052       .  S
C383        C384   1.497       .  S
C384        C385   1.243       .  T
C386        C387   1.235       .  T
C388        C389   1.234       .  T
C390        C391   1.188       .  T
C392        C393   1.179       .  T
C394        C395   1.179       .  T
C396        C397   1.231       .  T
C398        C399   1.241       .  T
C400        C401   1.240       .  T
C402        C403   1.381       .  D
C402        H404   1.086       .  S
C403        H405   1.086       .  S
C406        C407   1.179       .  T
C408        C409   1.188       .  T
C410        C411   1.178       .  T
C412        C413   1.324       .  D
C412        H414   1.091       .  S
C413        H415   1.089       .  S
C416        C490   1.434       .  S
C416        C492   1.441       .  S
C416        C494   1.423       .  S
C416        C496   1.439       .  S
C417        C479   1.512       .  S
C417        C482   1.528       .  S
C417        C483   1.526       .  S
C417        C486   1.590       .  S
C418        C474   1.433       .  S
C418        C475   1.423       .  S
C418        C478   1.441       .  S
C418        C495   1.448       .  S
C419        C468   1.530       .  S
C419        C470   1.517       .  S
C419        C472   1.519       .  S
C419        C485   1.590       .  S
O420        C447   1.259       .  A
O420       Mn446   2.043       .  S
C421        O454   1.256       .  A
C421        O451   1.257       .  A
C421        C493   1.384       .  S
O422       Mn440   2.146       .  S
O422       Mn444   2.163       .  S
O422       Mn446   2.147       .  S
O423        C433   1.259       .  A
O423       Mn623   2.040       .  S
O424        C447   1.260       .  A
O424       Mn440   2.046       .  S
O425        C452   1.267       .  A
O425       Mn444   2.167       .  S
O426       Mn457   1.946       .  S
O426        C442   1.224       .  S
C427        O430   1.268       .  A
C427        C484   1.491       .  S
C427        O453   1.227       .  S
O428       Mn448   2.147       .  S
O428       Mn512   2.161       .  S
O428       Mn628   2.146       .  S
O428       Mn610   2.164       .  S
Mn429       O434   2.166       .  S
Mn429       O511   2.161   1_546  S
O431        C433   1.258       .  A
O431       Mn438   2.037       .  S
C432        O458   1.267       .  A
C432        C471   1.481       .  S
C432        O445   1.224       .  S
C433        C477   1.389       .  S
O434        C459   1.268       .  A
O435       Mn438   2.147       .  S
O435       Mn623   2.147       .  S
O436        C459   1.225       .  S
C437        O463   1.257       .  A
C437        O439   1.257       .  A
C437        C476   1.389       .  S
Mn438       O453   1.954       .  S
O439       Mn628   2.031       .  S
Mn440       O450   1.955       .  S
O441        C443   1.257       .  A
C442        O460   1.267       .  A
C442        C480   1.476       .  S
C443        O456   1.258       .  A
C443        C489   1.391       .  S
Mn444       O594   2.164   1_545  S
C447        C473   1.401       .  S
Mn448       O463   2.028       .  S
C449        O455   1.260       .  A
C449        O465   1.261       .  A
C449        C491   1.403       .  S
O450       Mn462   1.961       .  S
O450        C452   1.228       .  S
C452        C481   1.493       .  S
O454       Mn540   2.024   1_556  S
Mn457       O589   2.040   1_545  S
Mn457       O537   2.024   1_545  S
Mn457       O601   2.147   1_545  S
C459        C469   1.482       .  S
O461        C466   1.267       .  A
Mn462       O605   2.031   1_545  S
Mn462       O548   2.052   1_545  S
Mn462       O594   2.146   1_545  S
O464        C466   1.229       .  S
O465       Mn545   2.052   1_556  S
C466        C467   1.497       .  S
C467        C468   1.243       .  T
C469        C470   1.235       .  T
C471        C472   1.234       .  T
C473        C474   1.188       .  T
C475        C476   1.179       .  T
C477        C478   1.179       .  T
C479        C480   1.231       .  T
C481        C482   1.241       .  T
C483        C484   1.240       .  T
C485        C486   1.381       .  D
C485        H487   1.086       .  S
C486        H488   1.086       .  S
C489        C490   1.179       .  T
C491        C492   1.188       .  T
C493        C494   1.178       .  T
C495        C496   1.324       .  D
C495        H497   1.091       .  S
C496        H498   1.089       .  S
C499        C573   1.434       .  S
C499        C575   1.441       .  S
C499        C577   1.423       .  S
C499        C579   1.439       .  S
C500        C562   1.512       .  S
C500        C565   1.528       .  S
C500        C566   1.526       .  S
C500        C569   1.590       .  S
C501        C557   1.433       .  S
C501        C558   1.423       .  S
C501        C561   1.441       .  S
C501        C578   1.448       .  S
C502        C551   1.530       .  S
C502        C553   1.517       .  S
C502        C555   1.519       .  S
C502        C568   1.590       .  S
O503        C530   1.259       .  A
O503       Mn529   2.043       .  S
C504        O537   1.256       .  A
C504        O534   1.257       .  A
C504        C576   1.384       .  S
O505       Mn595   2.162   1_554  S
O505       Mn523   2.146       .  S
O505       Mn527   2.163       .  S
O505       Mn529   2.147       .  S
O506        C516   1.259       .  A
O507        C530   1.260       .  A
O507       Mn523   2.046       .  S
O508        C535   1.267       .  A
O508       Mn527   2.167       .  S
O509       Mn540   1.946       .  S
O509        C525   1.224       .  S
C510        O513   1.268       .  A
C510        C567   1.491       .  S
C510        O536   1.227       .  S
O511       Mn531   2.147       .  S
Mn512       O517   2.166       .  S
Mn512       O588   2.162       .  S
O514        C516   1.258       .  A
O514       Mn521   2.037       .  S
C515        O541   1.267       .  A
C515        C554   1.481       .  S
C515        O528   1.224       .  S
C516        C560   1.389       .  S
O517        C542   1.268       .  A
O518       Mn521   2.147       .  S
O519       Mn606   1.957       .  S
O519       Mn628   1.951       .  S
O519        C542   1.225       .  S
C520        O546   1.257       .  A
C520        O522   1.257       .  A
C520        C559   1.389       .  S
Mn521       O617   2.030   1_554  S
Mn521       O536   1.954       .  S
Mn521       O611   1.951   1_554  S
Mn523       O622   2.035   1_554  S
Mn523       O602   1.957   1_554  S
Mn523       O533   1.955       .  S
O524        C526   1.257       .  A
O524       Mn612   2.033       .  S
C525        O543   1.267       .  A
C525        C563   1.476       .  S
C526        O539   1.258       .  A
C526        C572   1.391       .  S
O528       Mn604   1.951       .  S
Mn529       O607   2.033   1_554  S
C530        C556   1.401       .  S
Mn531       O621   2.049   1_554  S
Mn531       O546   2.028       .  S
C532        O538   1.260       .  A
C532        O548   1.261       .  A
C532        C574   1.403       .  S
O533       Mn545   1.961       .  S
O533        C535   1.228       .  S
O534       Mn604   2.030       .  S
C535        C564   1.493       .  S
O538       Mn614   2.048       .  S
O539       Mn606   2.035       .  S
Mn540       O630   1.962   1_554  S
C542        C552   1.482       .  S
O544        C549   1.267       .  A
Mn545       O602   1.951   1_554  S
O547       Mn623   1.962       .  S
O547        C549   1.229       .  S
C549        C550   1.497       .  S
C550        C551   1.243       .  T
C552        C553   1.235       .  T
C554        C555   1.234       .  T
C556        C557   1.188       .  T
C558        C559   1.179       .  T
C560        C561   1.179       .  T
C562        C563   1.231       .  T
C564        C565   1.241       .  T
C566        C567   1.240       .  T
C568        C569   1.381       .  D
C568        H570   1.086       .  S
C569        H571   1.086       .  S
C572        C573   1.179       .  T
C574        C575   1.188       .  T
C576        C577   1.178       .  T
C578        C579   1.324       .  D
C578        H580   1.091       .  S
C579        H581   1.089       .  S
C582        C656   1.434       .  S
C582        C658   1.441       .  S
C582        C660   1.423       .  S
C582        C662   1.439       .  S
C583        C645   1.512       .  S
C583        C648   1.528       .  S
C583        C649   1.526       .  S
C583        C652   1.590       .  S
C584        C640   1.433       .  S
C584        C641   1.423       .  S
C584        C644   1.441       .  S
C584        C661   1.448       .  S
C585        C634   1.530       .  S
C585        C636   1.517       .  S
C585        C638   1.519       .  S
C585        C651   1.590       .  S
O586        C613   1.259       .  A
O586       Mn612   2.043       .  S
C587        O620   1.256       .  A
C587        O617   1.257       .  A
C587        C659   1.384       .  S
O588       Mn606   2.146       .  S
O588       Mn610   2.163       .  S
O588       Mn612   2.147       .  S
O589        C599   1.259       .  A
O590        C613   1.260       .  A
O590       Mn606   2.046       .  S
O591        C618   1.267       .  A
O591       Mn610   2.167       .  S
O592       Mn623   1.946       .  S
O592        C608   1.224       .  S
C593        O596   1.268       .  A
C593        C650   1.491       .  S
C593        O619   1.227       .  S
O594       Mn614   2.147       .  S
Mn595       O600   2.166       .  S
O597        C599   1.258       .  A
O597       Mn604   2.037       .  S
C598        O624   1.267       .  A
C598        C637   1.481       .  S
C598        O611   1.224       .  S
C599        C643   1.389       .  S
O600        C625   1.268       .  A
O601       Mn604   2.147       .  S
O602        C625   1.225       .  S
C603        O629   1.257       .  A
C603        O605   1.257       .  A
C603        C642   1.389       .  S
Mn604       O619   1.954       .  S
Mn606       O616   1.955       .  S
O607        C609   1.257       .  A
C608        O626   1.267       .  A
C608        C646   1.476       .  S
C609        O622   1.258       .  A
C609        C655   1.391       .  S
C613        C639   1.401       .  S
Mn614       O629   2.028       .  S
C615        O621   1.260       .  A
C615        O631   1.261       .  A
C615        C657   1.403       .  S
O616       Mn628   1.961       .  S
O616        C618   1.228       .  S
C618        C647   1.493       .  S
C625        C635   1.482       .  S
O627        C632   1.267       .  A
O630        C632   1.229       .  S
C632        C633   1.497       .  S
C633        C634   1.243       .  T
C635        C636   1.235       .  T
C637        C638   1.234       .  T
C639        C640   1.188       .  T
C641        C642   1.179       .  T
C643        C644   1.179       .  T
C645        C646   1.231       .  T
C647        C648   1.241       .  T
C649        C650   1.240       .  T
C651        C652   1.381       .  D
C651        H653   1.086       .  S
C652        H654   1.086       .  S
C655        C656   1.179       .  T
C657        C658   1.188       .  T
C659        C660   1.178       .  T
C661        C662   1.324       .  D
C661        H663   1.091       .  S
C662        H664   1.089       .  S
