geometry optimzed in LAMMPS
_audit_creation_date              2020-11-30 
_audit_creation_method            'lammps2cif' 
_symmetry_space_group_name_H-M    'P1' 
_symmetry_Int_Tables_number       1 
_symmetry_cell_setting            triclinic 
loop_ 
_symmetry_equiv_pos_as_xyz 
  x,y,z 
_cell_length_a                    24.01884567 
_cell_length_b                    24.2182839133894 
_cell_length_c                    56.993433592617315 
_cell_angle_alpha                 89.88635780453797 
_cell_angle_beta                  90.00476176752791 
_cell_angle_gamma                 90.00095857757829 
loop_ 
_atom_site_label 
_atom_site_type_symbol 
_atom_site_fract_x 
_atom_site_fract_y 
_atom_site_fract_z 
_atom_site_charge 
C1          C  0.05108980  0.01324341  0.06809218     0.06500
C2          C  0.05030234  0.50946179  0.09275247     0.06500
C3          C  0.49966244  0.50761684  0.10466374    -0.14000
C4          C  0.44926254  0.50980623  0.09257008     0.06500
C5          C  0.44885477  0.01357875  0.06792179     0.06500
C6          C  0.00007750  0.01478787  0.05588131    -0.14000
H7          H  0.00025894  0.01677557  0.03702391     0.08500
H8          H  0.49946758  0.50450290  0.12368230     0.08500
C9          C  0.19879909  0.02201971  0.03144477     0.06500
C10         C  0.19861567  0.02695741  0.00674721     0.06500
C11         C  0.24960127  0.02945051  0.99457916    -0.14000
C12         C  0.30073741  0.02715941  0.00664923     0.06500
C13         C  0.30090921  0.02228003  0.03134557     0.06500
C14         C  0.24993155  0.01987755  0.04352041    -0.14000
H15         H  0.25005282  0.01604464  0.06248562     0.08500
H16         H  0.24948671  0.03299688  0.97560481     0.08500
O17         O  0.30807178  0.04263744  0.15056892    -0.68700
O18         O  0.19143427  0.02874095  0.20078078    -0.69700
O19         O  0.31027938  0.02906355  0.20033866    -0.58300
O20         O  0.19151779  0.04229471  0.15092134    -0.66700
O21         O  0.19180965  0.45109344  0.14649157    -0.66300
O22         O  0.31020278  0.43796402  0.19579340    -0.57500
O23         O  0.19171562  0.43764977  0.19622542    -0.70000
O24         O  0.30813512  0.45142009  0.14615095    -0.68800
Cu25       Cu  0.25030818  0.03891569  0.17590249     1.04600
Cu26       Cu  0.25046179  0.44132366  0.17110822     1.04300
C27         C  0.32501917  0.49928796  0.14008873     0.97500
C28         C  0.17310380  0.48094352  0.20628434     0.96600
C29         C  0.32907349  0.48135080  0.20568827     0.88800
C30         C  0.17450845  0.49887065  0.14049711     0.95000
C31         C  0.05077565  0.52930130  0.96993672     0.06500
C32         C  0.05028034  0.52309901  0.94537068     0.06500
C33         C  0.99979366  0.52037683  0.93336365    -0.14000
C34         C  0.44921802  0.52286142  0.94530658     0.06500
C35         C  0.44851704  0.52924698  0.96985806     0.06500
C36         C  0.99959125  0.53336591  0.98191655    -0.14000
H37         H  0.99949836  0.03952757  0.00060897     0.08500
H38         H  0.99986771  0.51545267  0.91442098     0.08500
O39         O  0.30900205  0.02821343  0.83703719    -0.68700
O40         O  0.19180977  0.04813366  0.88667636    -0.69700
O41         O  0.30836542  0.04755983  0.88648937    -0.58300
O42         O  0.19019612  0.02884639  0.83728113    -0.66700
O43         O  0.18996205  0.43834186  0.84378626    -0.66300
O44         O  0.30788020  0.45700168  0.89301130    -0.57500
O45         O  0.19145423  0.45755306  0.89312342    -0.70000
O46         O  0.30868616  0.43774392  0.84358761    -0.68800
Cu47       Cu  0.24987219  0.04134979  0.86154761     1.04600
Cu48       Cu  0.24949272  0.44443343  0.86850875     1.04300
C49         C  0.32743461  0.47986882  0.83261830     0.97500
C50         C  0.17460728  0.50609476  0.89808980     0.96600
C51         C  0.32518172  0.50541170  0.89792903     0.88800
C52         C  0.17129726  0.48065750  0.83294092     0.95000
O53         O  0.45655445  0.25997942  0.64818757    -0.68700
O54         O  0.45680762  0.14278182  0.69803225    -0.69700
O55         O  0.45640111  0.25842358  0.69839212    -0.58300
O56         O  0.45682823  0.14412754  0.64778228    -0.66700
O57         O  0.04940477  0.14421502  0.64775369    -0.66300
O58         O  0.04898988  0.25878776  0.69846834    -0.57500
O59         O  0.04936509  0.14292222  0.69811531    -0.70000
O60         O  0.04911798  0.26023470  0.64817951    -0.68800
Cu61       Cu  0.45340982  0.20131834  0.67308616     1.04600
Cu62       Cu  0.05252671  0.20155202  0.67311811     1.04300
C63         C  0.50277757  0.27751621  0.64002533     0.97500
C64         C  0.50305897  0.12562351  0.70631197     0.96600
C65         C  0.50257160  0.27538299  0.70675684     0.88800
C66         C  0.50310028  0.12721339  0.63949122     0.95000
C67         C  0.49232891  0.00325039  0.56762492     0.06500
C68         C  0.49902916  0.00281924  0.59218386     0.06500
C69         C  0.50219032  0.45278065  0.60428036    -0.14000
C70         C  0.49933517  0.40243236  0.59249238     0.06500
C71         C  0.49300223  0.40145549  0.56790494     0.06500
C72         C  0.48855579  0.45220790  0.55570179    -0.14000
H73         H  0.48191023  0.45196010  0.53705548     0.08500
H74         H  0.50679459  0.45302557  0.62323739     0.08500
C75         C  0.49539903  0.15166267  0.53157125     0.06500
C76         C  0.00252274  0.15199182  0.50695517     0.06500
C77         C  0.00659909  0.20301312  0.49501247    -0.14000
C78         C  0.00372750  0.25368163  0.50720510     0.06500
C79         C  0.49655802  0.25335272  0.53181682     0.06500
C80         C  0.49252608  0.20233627  0.54376257    -0.14000
H81         H  0.48724179  0.20206155  0.56265780     0.08500
H82         H  0.01190468  0.20329287  0.47611815     0.08500
C83         C  0.00047442  0.39845154  0.75522156     0.90700
C84         C  0.05064055  0.40478894  0.77163278    -0.49500
C85         C  0.04999800  0.45291721  0.78407638     0.13600
C86         C  0.99951217  0.99029581  0.77883304     0.24600
C87         C  0.44915408  0.40459689  0.77102791    -0.50200
C88         C  0.44878897  0.45271358  0.78351424     0.13800
C89         C  0.00093795  0.44981672  0.73977178    -0.49800
C90         C  0.50053710  0.99782328  0.75194457     0.14300
H91         H  0.08326887  0.37398812  0.77341033     0.18800
H92         H  0.99917444  0.02957526  0.78887770     0.04600
H93         H  0.41671645  0.37351758  0.77250618     0.19100
H94         H  0.00184505  0.44840565  0.72069702     0.18900
C95         C  0.00085938  0.00275169  0.44627708     0.06500
C96         C  0.00639527  0.00378322  0.47089080     0.06500
C97         C  0.01058212  0.45303210  0.48309679    -0.14000
C98         C  0.00746994  0.40199023  0.47112688     0.06500
C99         C  0.00182667  0.40237677  0.44651484     0.06500
C100        C  0.99891797  0.45243029  0.43442874    -0.14000
H101        H  0.99498132  0.45221914  0.41544501     0.08500
H102        H  0.01647296  0.45326794  0.50178646     0.08500
O103        O  0.45060580  0.14472461  0.39054212    -0.68700
O104        O  0.45147330  0.26193064  0.34075227    -0.69700
O105        O  0.45089367  0.14613362  0.34020216    -0.58300
O106        O  0.45130464  0.26076294  0.39103668    -0.66700
O107        O  0.04387027  0.26011195  0.39105336    -0.66300
O108        O  0.04346504  0.14588558  0.34029861    -0.57500
O109        O  0.04406196  0.26145907  0.34088384    -0.70000
O110        O  0.04318521  0.14430756  0.39052545    -0.68800
Cu111      Cu  0.44775228  0.20339032  0.36564201     1.04600
Cu112      Cu  0.04687846  0.20290590  0.36570507     1.04300
C113        C  0.99683605  0.12719593  0.39870094     0.97500
C114        C  0.99793513  0.27891724  0.33262623     0.96600
C115        C  0.99720179  0.12925219  0.33188743     0.88800
C116        C  0.99772357  0.27749531  0.39930125     0.95000
C117        C  0.49995694  0.40255839  0.28404608     0.90700
C118        C  0.44988247  0.40830853  0.26752065    -0.49500
C119        C  0.45050950  0.45608332  0.25474053     0.13600
C120        C  0.50087626  0.99367270  0.25976607     0.24600
C121        C  0.05138474  0.40837574  0.26826985    -0.50200
C122        C  0.05170980  0.45614269  0.25546416     0.13800
C123        C  0.49927038  0.45438754  0.29911463    -0.49800
C124        C  0.99967104  0.00198227  0.28656655     0.14300
H125        H  0.41728491  0.37743178  0.26594503     0.18800
H126        H  0.50122149  0.03265584  0.24944799     0.04600
H127        H  0.08398113  0.37740341  0.26708495     0.19100
H128        H  0.49830237  0.45358837  0.31819638     0.18900
C129        C  0.99841904  0.31799499  0.31377352    -0.09000
C130        C  0.99921460  0.35312229  0.29881635    -0.10600
C131        C  0.99839901  0.05398142  0.29863845    -0.09000
C132        C  0.99741950  0.09058429  0.31289527    -0.10600
C133        C  0.99821223  0.31675193  0.41808306    -0.09000
C134        C  0.99960439  0.35277194  0.43261687    -0.10600
C135        C  0.99687662  0.08771035  0.41742412    -0.09000
C136        C  0.99816403  0.05196119  0.43211559    -0.10600
C137        C  0.00856484  0.34993298  0.48409527    -0.09000
C138        C  0.00730203  0.30579589  0.49430794    -0.10600
C139        C  0.00537929  0.10018787  0.49384878    -0.09000
C140        C  0.00669449  0.05611548  0.48363109    -0.10600
C141        C  0.49234066  0.34916746  0.55516141    -0.09000
C142        C  0.49362382  0.30513695  0.54492221    -0.10600
C143        C  0.49084190  0.05534865  0.55466631    -0.09000
C144        C  0.49191455  0.09952858  0.54447110    -0.10600
C145        C  0.50255513  0.31726085  0.62135013    -0.09000
C146        C  0.50157626  0.35316845  0.60669325    -0.10600
C147        C  0.50155004  0.05237910  0.60605573    -0.09000
C148        C  0.50288449  0.08823699  0.62063956    -0.10600
C149        C  0.50215575  0.31363661  0.72584048    -0.09000
C150        C  0.50128694  0.34863134  0.74078749    -0.10600
C151        C  0.50184932  0.04948722  0.73944690    -0.09000
C152        C  0.50283922  0.08612830  0.72511035    -0.10600
C153        C  0.37002478  0.47266972  0.81507518    -0.09000
C154        C  0.40588226  0.46503713  0.80054357    -0.10600
C155        C  0.12831182  0.47377615  0.81561432    -0.09000
C156        C  0.09236823  0.46590267  0.80118443    -0.10600
C157        C  0.36403598  0.51254828  0.91668883    -0.09000
C158        C  0.39957668  0.51791351  0.93137374    -0.10600
C159        C  0.10005359  0.51857369  0.93148582    -0.09000
C160        C  0.13572498  0.51342533  0.91683761    -0.10600
C161        C  0.37214556  0.47604907  0.22308830    -0.09000
C162        C  0.40811318  0.46869113  0.23757007    -0.11200
C163        C  0.09481399  0.46832071  0.23852894    -0.09000
C164        C  0.13070186  0.47549789  0.22398411    -0.10600
C165        C  0.35261543  0.52928097  0.99346851    -0.09000
C166        C  0.39634218  0.53008070  0.98282322    -0.10600
C167        C  0.10285231  0.52997663  0.98299027    -0.09000
C168        C  0.14656881  0.52905676  0.99365583    -0.10600
C169        C  0.39943178  0.50749814  0.10646605    -0.09000
C170        C  0.36372751  0.50432236  0.12117819    -0.10600
C171        C  0.09990320  0.50692203  0.10684754    -0.09000
C172        C  0.13547509  0.50373950  0.12164906    -0.10600
C173        C  0.39676289  0.01651770  0.05493441    -0.09000
C174        C  0.35297005  0.01919148  0.04438213    -0.10600
C175        C  0.14696235  0.01870884  0.04459726    -0.09000
C176        C  0.10329684  0.01599502  0.05521978    -0.10600
C177        C  0.05108706  0.51322344  0.06809169     0.06500
C178        C  0.05030574  0.00946804  0.09275263     0.06500
C179        C  0.49966616  0.00761696  0.10466401    -0.14000
C180        C  0.44926597  0.00981175  0.09257062     0.06500
C181        C  0.44885214  0.51355954  0.06792097     0.06500
C182        C  0.00007505  0.51475972  0.05587952    -0.14000
H183        H  0.00025682  0.51673390  0.03702588     0.08500
H184        H  0.49947177  0.00449299  0.12368216     0.08500
C185        C  0.19879699  0.52200968  0.03144520     0.06500
C186        C  0.19861354  0.52696275  0.00674822     0.06500
C187        C  0.24959884  0.52946337  0.99458024    -0.14000
C188        C  0.30073492  0.52716497  0.00665002     0.06500
C189        C  0.30090678  0.52227059  0.03134576     0.06500
C190        C  0.24992944  0.51986059  0.04352058    -0.14000
H191        H  0.25005098  0.51601646  0.06248516     0.08500
H192        H  0.24948408  0.53302114  0.97560639     0.08500
O193        O  0.30806774  0.54264814  0.15056838    -0.68700
O194        O  0.19143143  0.52875434  0.20078172    -0.69700
O195        O  0.31027744  0.52907750  0.20033876    -0.58300
O196        O  0.19151313  0.54230480  0.15092170    -0.66700
O197        O  0.19181364  0.95108371  0.14648980    -0.66300
O198        O  0.31020503  0.93795029  0.19579233    -0.57500
O199        O  0.19171759  0.93763659  0.19622354    -0.70000
O200        O  0.30813928  0.95140971  0.14615010    -0.68800
Cu201      Cu  0.25030480  0.53892790  0.17590266     1.04600
Cu202      Cu  0.25046487  0.94131170  0.17110678     1.04300
C203        C  0.32502348  0.99927815  0.14008877     0.97500
C204        C  0.17310593  0.98093009  0.20628273     0.96600
C205        C  0.32907546  0.98133666  0.20568765     0.88800
C206        C  0.17451296  0.99886163  0.14049605     0.95000
C207        C  0.05077745  0.02928015  0.96993488     0.06500
C208        C  0.05028173  0.02307755  0.94536875     0.06500
C209        C  0.99979492  0.02035600  0.93336184    -0.14000
C210        C  0.44921930  0.02284203  0.94530459     0.06500
C211        C  0.44851863  0.02922707  0.96985625     0.06500
C212        C  0.99959304  0.03334413  0.98191364    -0.14000
H213        H  0.99949647  0.53954878  0.00060744     0.08500
H214        H  0.99986889  0.01543219  0.91441864     0.08500
O215        O  0.30900291  0.52821037  0.83703896    -0.68700
O216        O  0.19180954  0.54814424  0.88667690    -0.69700
O217        O  0.30836524  0.54756774  0.88649031    -0.58300
O218        O  0.19019659  0.52884532  0.83728217    -0.66700
O219        O  0.18996331  0.93834144  0.84378162    -0.66300
O220        O  0.30788223  0.95699236  0.89300677    -0.57500
O221        O  0.19145630  0.95754104  0.89311930    -0.70000
O222        O  0.30868666  0.93774555  0.84358241    -0.68800
Cu223      Cu  0.24987245  0.54135326  0.86154855     1.04600
Cu224      Cu  0.24949431  0.94442836  0.86850398     1.04300
C225        C  0.32743405  0.97987298  0.83261462     0.97500
C226        C  0.17460844  0.00608129  0.89808756     0.96600
C227        C  0.32518287  0.00540162  0.89792638     0.88800
C228        C  0.17129742  0.98065926  0.83293819     0.95000
O229        O  0.45655425  0.75997833  0.64818961    -0.68700
O230        O  0.45680643  0.64278023  0.69803489    -0.69700
O231        O  0.45640303  0.75842189  0.69839408    -0.58300
O232        O  0.45682392  0.64412596  0.64778459    -0.66700
O233        O  0.04940038  0.64421064  0.64775506    -0.66300
O234        O  0.04899185  0.75878364  0.69846977    -0.57500
O235        O  0.04936380  0.64291785  0.69811707    -0.70000
O236        O  0.04911769  0.76023086  0.64818087    -0.68800
Cu237      Cu  0.45340894  0.70131684  0.67308844     1.04600
Cu238      Cu  0.05252574  0.70154763  0.67311957     1.04300
C239        C  0.50277752  0.77751416  0.64002704     0.97500
C240        C  0.50305770  0.62562082  0.70631439     0.96600
C241        C  0.50257423  0.77538037  0.70675833     0.88800
C242        C  0.50309489  0.62721075  0.63949289     0.95000
C243        C  0.49232343  0.50325162  0.56762462     0.06500
C244        C  0.49902080  0.50282014  0.59218375     0.06500
C245        C  0.50219826  0.95277998  0.60428088    -0.14000
C246        C  0.49933900  0.90243108  0.59249338     0.06500
C247        C  0.49300323  0.90145386  0.56790603     0.06500
C248        C  0.48855765  0.95220620  0.55570232    -0.14000
H249        H  0.48191002  0.95195787  0.53705752     0.08500
H250        H  0.50680443  0.95302559  0.62323762     0.08500
C251        C  0.49539649  0.65166232  0.53157080     0.06500
C252        C  0.00252470  0.65199155  0.50695491     0.06500
C253        C  0.00660386  0.70301338  0.49501253    -0.14000
C254        C  0.00373022  0.75368169  0.50720557     0.06500
C255        C  0.49655603  0.75335210  0.53181707     0.06500
C256        C  0.49252142  0.70233545  0.54376221    -0.14000
H257        H  0.48723356  0.70206016  0.56265750     0.08500
H258        H  0.01191273  0.70329376  0.47611878     0.08500
C259        C  0.00047543  0.89845417  0.75522017     0.90700
C260        C  0.05064068  0.90479278  0.77163170    -0.49500
C261        C  0.04999740  0.95292231  0.78407438     0.13600
C262        C  0.99951221  0.49029112  0.77883606     0.24600
C263        C  0.44915420  0.90460104  0.77102578    -0.50200
C264        C  0.44878859  0.95271906  0.78351118     0.13800
C265        C  0.00093995  0.94981789  0.73976933    -0.49800
C266        C  0.50053573  0.49782118  0.75194760     0.14300
H267        H  0.08326840  0.87399252  0.77341005     0.18800
H268        H  0.99917488  0.52956956  0.78888135     0.04600
H269        H  0.41671644  0.87352208  0.77250428     0.19100
H270        H  0.00184792  0.94840514  0.72069501     0.18900
C271        C  0.00085967  0.50275122  0.44627629     0.06500
C272        C  0.00639546  0.50378221  0.47089000     0.06500
C273        C  0.01058385  0.95303376  0.48309797    -0.14000
C274        C  0.00747313  0.90199157  0.47112837     0.06500
C275        C  0.00182927  0.90237757  0.44651642     0.06500
C276        C  0.99891888  0.95243041  0.43442994    -0.14000
H277        H  0.99498195  0.95221840  0.41544624     0.08500
H278        H  0.01647490  0.95327049  0.50178763     0.08500
O279        O  0.45060744  0.64472860  0.39054368    -0.68700
O280        O  0.45147605  0.76193413  0.34075425    -0.69700
O281        O  0.45089496  0.64613797  0.34020408    -0.58300
O282        O  0.45130740  0.76076636  0.39103836    -0.66700
O283        O  0.04387325  0.76011407  0.39105513    -0.66300
O284        O  0.04346639  0.64588907  0.34030027    -0.57500
O285        O  0.04406492  0.76146172  0.34088593    -0.70000
O286        O  0.04318691  0.64431027  0.39052679    -0.68800
Cu287      Cu  0.44775436  0.70339429  0.36564382     1.04600
Cu288      Cu  0.04688075  0.70290873  0.36570680     1.04300
C289        C  0.99683759  0.62719893  0.39870215     0.97500
C290        C  0.99793824  0.77891969  0.33262821     0.96600
C291        C  0.99720281  0.62925607  0.33188932     0.88800
C292        C  0.99772671  0.77749766  0.39930302     0.95000
C293        C  0.49996069  0.90255431  0.28404609     0.90700
C294        C  0.44988587  0.90830173  0.26752075    -0.49500
C295        C  0.45051242  0.95607512  0.25473971     0.13600
C296        C  0.50087373  0.49367963  0.25976779     0.24600
C297        C  0.05138790  0.90837015  0.26826973    -0.50200
C298        C  0.05171251  0.95613532  0.25546307     0.13800
C299        C  0.49927388  0.95438489  0.29911364    -0.49800
C300        C  0.99966837  0.50198624  0.28656835     0.14300
H301        H  0.41728918  0.87742480  0.26594583     0.18800
H302        H  0.50121950  0.53266399  0.24945053     0.04600
H303        H  0.08398480  0.87739719  0.26708526     0.19100
H304        H  0.49830584  0.95358762  0.31819548     0.18900
C305        C  0.99842270  0.81799521  0.31377503    -0.09000
C306        C  0.99921864  0.85312027  0.29881712    -0.10600
C307        C  0.99839791  0.55398444  0.29864089    -0.09000
C308        C  0.99741969  0.59058766  0.31289748    -0.10600
C309        C  0.99821576  0.81675313  0.41808500    -0.09000
C310        C  0.99960780  0.85277267  0.43261885    -0.10600
C311        C  0.99687792  0.58771196  0.41742461    -0.09000
C312        C  0.99816514  0.55196130  0.43211532    -0.10600
C313        C  0.00856941  0.84993436  0.48409681    -0.09000
C314        C  0.00730657  0.80579657  0.49430894    -0.10600
C315        C  0.00538189  0.60018730  0.49384835    -0.09000
C316        C  0.00669635  0.55611464  0.48363059    -0.10600
C317        C  0.49233864  0.84916570  0.55516257    -0.09000
C318        C  0.49362087  0.80513574  0.54492288    -0.10600
C319        C  0.49083672  0.55534958  0.55466615    -0.09000
C320        C  0.49191010  0.59952870  0.54447054    -0.10600
C321        C  0.50255567  0.81725967  0.62135186    -0.09000
C322        C  0.50157808  0.85316735  0.60669480    -0.10600
C323        C  0.50154077  0.55237942  0.60605610    -0.09000
C324        C  0.50287655  0.58823574  0.62064065    -0.10600
C325        C  0.50215946  0.81363545  0.72584129    -0.09000
C326        C  0.50128935  0.84863225  0.74078730    -0.10600
C327        C  0.50184795  0.54948600  0.73945031    -0.09000
C328        C  0.50283784  0.58612652  0.72511335    -0.10600
C329        C  0.37002359  0.97267748  0.81507115    -0.09000
C330        C  0.40588117  0.96504468  0.80053972    -0.10600
C331        C  0.12831125  0.97378114  0.81561190    -0.09000
C332        C  0.09236711  0.96590890  0.80118227    -0.10600
C333        C  0.36403712  0.01253487  0.91668645    -0.09000
C334        C  0.39957774  0.01789722  0.93137163    -0.10600
C335        C  0.10005479  0.01855309  0.93148389    -0.09000
C336        C  0.13572615  0.01340708  0.91683558    -0.10600
C337        C  0.37214763  0.97603495  0.22308748    -0.09000
C338        C  0.40811582  0.96867970  0.23756913    -0.11200
C339        C  0.09481573  0.96831037  0.23852718    -0.09000
C340        C  0.13070354  0.97548476  0.22398218    -0.10600
C341        C  0.35261786  0.02926815  0.99346741    -0.09000
C342        C  0.39634393  0.03006360  0.98282150    -0.10600
C343        C  0.10285453  0.02995858  0.98298837    -0.09000
C344        C  0.14657083  0.02904367  0.99365436    -0.10600
C345        C  0.39943575  0.00749579  0.10646651    -0.09000
C346        C  0.36373188  0.00431483  0.12117853    -0.10600
C347        C  0.09990707  0.00692082  0.10684715    -0.09000
C348        C  0.13547956  0.00373309  0.12164819    -0.10600
C349        C  0.39676076  0.51649779  0.05493345    -0.09000
C350        C  0.35296761  0.51917496  0.04438174    -0.10600
C351        C  0.14696025  0.51869116  0.04459734    -0.09000
C352        C  0.10329440  0.51597385  0.05521944    -0.10600
C353        C  0.55108982  0.01324354  0.06809219     0.06500
C354        C  0.55030236  0.50946177  0.09275249     0.06500
C355        C  0.99966244  0.50761687  0.10466373    -0.14000
C356        C  0.94926253  0.50980617  0.09257007     0.06500
C357        C  0.94885474  0.01357845  0.06792178     0.06500
C358        C  0.50007753  0.01478819  0.05588142    -0.14000
H359        H  0.50025897  0.01677609  0.03702358     0.08500
H360        H  0.99946761  0.50450301  0.12368230     0.08500
C361        C  0.69879908  0.02201960  0.03144477     0.06500
C362        C  0.69861565  0.02695737  0.00674721     0.06500
C363        C  0.74960125  0.02945050  0.99457915    -0.14000
C364        C  0.80073740  0.02715931  0.00664922     0.06500
C365        C  0.80090920  0.02227981  0.03134555     0.06500
C366        C  0.74993155  0.01987736  0.04352042    -0.14000
H367        H  0.75005284  0.01604436  0.06248556     0.08500
H368        H  0.74948668  0.03299691  0.97560483     0.08500
O369        O  0.80807177  0.04263751  0.15056893    -0.68700
O370        O  0.69143430  0.02874102  0.20078082    -0.69700
O371        O  0.81027944  0.02906368  0.20033867    -0.58300
O372        O  0.69151777  0.04229470  0.15092137    -0.66700
O373        O  0.69180972  0.45109341  0.14649161    -0.66300
O374        O  0.81020284  0.43796415  0.19579345    -0.57500
O375        O  0.69171569  0.43764980  0.19622548    -0.70000
O376        O  0.80813520  0.45142012  0.14615100    -0.68800
Cu377      Cu  0.75030819  0.03891576  0.17590251     1.04600
Cu378      Cu  0.75046187  0.44132370  0.17110827     1.04300
C379        C  0.82501923  0.49928799  0.14008877     0.97500
C380        C  0.67310381  0.48094354  0.20628437     0.96600
C381        C  0.82907350  0.48135095  0.20568832     0.88800
C382        C  0.67450849  0.49887059  0.14049713     0.95000
C383        C  0.55077562  0.52930140  0.96993672     0.06500
C384        C  0.55028033  0.52309906  0.94537069     0.06500
C385        C  0.49979365  0.52037677  0.93336366    -0.14000
C386        C  0.94921804  0.52286154  0.94530657     0.06500
C387        C  0.94851707  0.52924714  0.96985806     0.06500
C388        C  0.49959121  0.53336591  0.98191663    -0.14000
H389        H  0.49949828  0.03952760  0.00060925     0.08500
H390        H  0.49986771  0.51545260  0.91442100     0.08500
O391        O  0.80900197  0.02821343  0.83703722    -0.68700
O392        O  0.69180969  0.04813379  0.88667636    -0.69700
O393        O  0.80836534  0.04755997  0.88648938    -0.58300
O394        O  0.69019605  0.02884638  0.83728115    -0.66700
O395        O  0.68996201  0.43834188  0.84378630    -0.66300
O396        O  0.80788024  0.45700177  0.89301132    -0.57500
O397        O  0.69145427  0.45755309  0.89312347    -0.70000
O398        O  0.80868611  0.43774395  0.84358762    -0.68800
Cu399      Cu  0.74987211  0.04134985  0.86154762     1.04600
Cu400      Cu  0.74949271  0.44443347  0.86850878     1.04300
C401        C  0.82743458  0.47986885  0.83261832     0.97500
C402        C  0.67460727  0.50609478  0.89808982     0.96600
C403        C  0.82518170  0.50541180  0.89792904     0.88800
C404        C  0.67129727  0.48065750  0.83294093     0.95000
O405        O  0.95655421  0.25997945  0.64818760    -0.68700
O406        O  0.95680742  0.14278184  0.69803227    -0.69700
O407        O  0.95640089  0.25842358  0.69839214    -0.58300
O408        O  0.95682800  0.14412756  0.64778229    -0.66700
O409        O  0.54940500  0.14421499  0.64775369    -0.66300
O410        O  0.54899011  0.25878775  0.69846834    -0.57500
O411        O  0.54936528  0.14292219  0.69811531    -0.70000
O412        O  0.54911823  0.26023466  0.64817950    -0.68800
Cu413      Cu  0.95340960  0.20131836  0.67308618     1.04600
Cu414      Cu  0.55252693  0.20155200  0.67311811     1.04300
C415        C  0.00277732  0.27751626  0.64002536     0.97500
C416        C  0.00305879  0.12562355  0.70631199     0.96600
C417        C  0.00257138  0.27538300  0.70675685     0.88800
C418        C  0.00310005  0.12721342  0.63949123     0.95000
C419        C  0.99232884  0.00325037  0.56762490     0.06500
C420        C  0.99902893  0.00281922  0.59218388     0.06500
C421        C  0.00218997  0.45278074  0.60428041    -0.14000
C422        C  0.99933493  0.40243244  0.59249242     0.06500
C423        C  0.99300217  0.40145555  0.56790497     0.06500
C424        C  0.98855585  0.45220796  0.55570185    -0.14000
H425        H  0.98191035  0.45196015  0.53705536     0.08500
H426        H  0.00679410  0.45302568  0.62323742     0.08500
C427        C  0.99539911  0.15166271  0.53157127     0.06500
C428        C  0.50252273  0.15199179  0.50695513     0.06500
C429        C  0.50659906  0.20301308  0.49501245    -0.14000
C430        C  0.50372745  0.25368159  0.50720507     0.06500
C431        C  0.99655808  0.25335277  0.53181685     0.06500
C432        C  0.99252617  0.20233632  0.54376264    -0.14000
H433        H  0.98724189  0.20206160  0.56265773     0.08500
H434        H  0.51190468  0.20329285  0.47611808     0.08500
C435        C  0.50047456  0.39845150  0.75522156     0.90700
C436        C  0.55064054  0.40478903  0.77163278    -0.49500
C437        C  0.54999809  0.45291718  0.78407637     0.13600
C438        C  0.49951224  0.99029576  0.77883300     0.24600
C439        C  0.94915398  0.40459694  0.77102791    -0.50200
C440        C  0.94878889  0.45271361  0.78351424     0.13800
C441        C  0.50093806  0.44981668  0.73977177    -0.49800
C442        C  0.00053697  0.99782343  0.75194462     0.14300
H443        H  0.58326920  0.37398788  0.77341035     0.18800
H444        H  0.49917450  0.02957514  0.78887764     0.04600
H445        H  0.91671634  0.37351763  0.77250619     0.19100
H446        H  0.50184519  0.44840559  0.72069702     0.18900
C447        C  0.50085934  0.00275165  0.44627707     0.06500
C448        C  0.50639525  0.00378321  0.47089070     0.06500
C449        C  0.51058209  0.45303208  0.48309681    -0.14000
C450        C  0.50746986  0.40199022  0.47112687     0.06500
C451        C  0.50182656  0.40237675  0.44651484     0.06500
C452        C  0.49891778  0.45243027  0.43442874    -0.14000
H453        H  0.49498107  0.45221911  0.41544501     0.08500
H454        H  0.51647295  0.45326791  0.50178634     0.08500
O455        O  0.95060605  0.14472458  0.39054212    -0.68700
O456        O  0.95147334  0.26193062  0.34075226    -0.69700
O457        O  0.95089390  0.14613360  0.34020217    -0.58300
O458        O  0.95130468  0.26076291  0.39103667    -0.66700
O459        O  0.54387024  0.26011184  0.39105337    -0.66300
O460        O  0.54346480  0.14588554  0.34029860    -0.57500
O461        O  0.54406192  0.26145902  0.34088385    -0.70000
O462        O  0.54318497  0.14430746  0.39052544    -0.68800
Cu463      Cu  0.94775242  0.20339029  0.36564201     1.04600
Cu464      Cu  0.54687832  0.20290582  0.36570507     1.04300
C465        C  0.49683579  0.12719588  0.39870093     0.97500
C466        C  0.49793511  0.27891724  0.33262624     0.96600
C467        C  0.49720155  0.12925219  0.33188743     0.88800
C468        C  0.49772356  0.27749527  0.39930126     0.95000
C469        C  0.99995704  0.40255842  0.28404607     0.90700
C470        C  0.94988241  0.40830851  0.26752065    -0.49500
C471        C  0.95050959  0.45608344  0.25474054     0.13600
C472        C  0.00087637  0.99367275  0.25976607     0.24600
C473        C  0.55138471  0.40837574  0.26826989    -0.50200
C474        C  0.55170974  0.45614268  0.25546418     0.13800
C475        C  0.99927055  0.45438755  0.29911463    -0.49800
C476        C  0.49967094  0.00198227  0.28656654     0.14300
H477        H  0.91728519  0.37743214  0.26594506     0.18800
H478        H  0.00122164  0.03265584  0.24944799     0.04600
H479        H  0.58398109  0.37740342  0.26708500     0.19100
H480        H  0.99830258  0.45358837  0.31819637     0.18900
C481        C  0.49841905  0.31799499  0.31377354    -0.09000
C482        C  0.49921457  0.35312229  0.29881636    -0.10600
C483        C  0.49839880  0.05398143  0.29863844    -0.09000
C484        C  0.49741924  0.09058430  0.31289526    -0.10600
C485        C  0.49821225  0.31675190  0.41808307    -0.09000
C486        C  0.49960436  0.35277191  0.43261688    -0.10600
C487        C  0.49687634  0.08771028  0.41742410    -0.09000
C488        C  0.49816385  0.05196111  0.43211556    -0.10600
C489        C  0.50856478  0.34993296  0.48409526    -0.09000
C490        C  0.50730197  0.30579586  0.49430791    -0.10600
C491        C  0.50537927  0.10018783  0.49384875    -0.09000
C492        C  0.50669451  0.05611543  0.48363106    -0.10600
C493        C  0.99234068  0.34916751  0.55516145    -0.09000
C494        C  0.99362388  0.30513700  0.54492224    -0.10600
C495        C  0.99084192  0.05534867  0.55466634    -0.09000
C496        C  0.99191459  0.09952861  0.54447113    -0.10600
C497        C  0.00255487  0.31726093  0.62135017    -0.09000
C498        C  0.00157600  0.35316855  0.60669330    -0.10600
C499        C  0.00154979  0.05237909  0.60605576    -0.09000
C500        C  0.00288424  0.08823700  0.62063958    -0.10600
C501        C  0.00215556  0.31363663  0.72584049    -0.09000
C502        C  0.00128679  0.34863138  0.74078749    -0.10600
C503        C  0.00184921  0.04948737  0.73944696    -0.09000
C504        C  0.00283906  0.08612840  0.72511038    -0.10600
C505        C  0.87002472  0.47266974  0.81507519    -0.09000
C506        C  0.90588220  0.46503715  0.80054359    -0.10600
C507        C  0.62831186  0.47377614  0.81561433    -0.09000
C508        C  0.59236828  0.46590267  0.80118444    -0.10600
C509        C  0.86403596  0.51254845  0.91668884    -0.09000
C510        C  0.89957669  0.51791370  0.93137374    -0.10600
C511        C  0.60005359  0.51857375  0.93148584    -0.09000
C512        C  0.63572497  0.51342536  0.91683763    -0.10600
C513        C  0.87214558  0.47604927  0.22308836    -0.09000
C514        C  0.90811323  0.46869132  0.23757012    -0.11200
C515        C  0.59481396  0.46832072  0.23852897    -0.09000
C516        C  0.63070185  0.47549790  0.22398416    -0.10600
C517        C  0.85261543  0.52928119  0.99346850    -0.09000
C518        C  0.89634220  0.53008089  0.98282321    -0.10600
C519        C  0.60285227  0.52997682  0.98299027    -0.09000
C520        C  0.64656878  0.52905698  0.99365583    -0.10600
C521        C  0.89943178  0.50749813  0.10646606    -0.09000
C522        C  0.86372755  0.50432237  0.12117822    -0.10600
C523        C  0.59990321  0.50692195  0.10684756    -0.09000
C524        C  0.63547512  0.50373941  0.12164907    -0.10600
C525        C  0.89676287  0.01651735  0.05493439    -0.09000
C526        C  0.85297003  0.01919115  0.04438211    -0.10600
C527        C  0.64696235  0.01870882  0.04459727    -0.09000
C528        C  0.60329687  0.01599507  0.05521981    -0.10600
C529        C  0.55108711  0.51322350  0.06809172     0.06500
C530        C  0.55030576  0.00946802  0.09275265     0.06500
C531        C  0.99966614  0.00761699  0.10466400    -0.14000
C532        C  0.94926594  0.00981165  0.09257060     0.06500
C533        C  0.94885210  0.51355935  0.06792095     0.06500
C534        C  0.50007510  0.51475993  0.05587947    -0.14000
H535        H  0.50025685  0.51673415  0.03702623     0.08500
H536        H  0.99947174  0.00449315  0.12368210     0.08500
C537        C  0.69879700  0.52200954  0.03144518     0.06500
C538        C  0.69861354  0.52696289  0.00674818     0.06500
C539        C  0.74959883  0.52946361  0.99458039    -0.14000
C540        C  0.80073490  0.52716509  0.00664997     0.06500
C541        C  0.80090677  0.52227039  0.03134573     0.06500
C542        C  0.74992945  0.51986027  0.04352050    -0.14000
H543        H  0.75005099  0.51601592  0.06248530     0.08500
H544        H  0.74948404  0.53302169  0.97560596     0.08500
O545        O  0.80806776  0.54264817  0.15056841    -0.68700
O546        O  0.69143138  0.52875438  0.20078173    -0.69700
O547        O  0.81027741  0.52907763  0.20033880    -0.58300
O548        O  0.69151315  0.54230477  0.15092171    -0.66700
O549        O  0.69181372  0.95108370  0.14648985    -0.66300
O550        O  0.81020511  0.93795041  0.19579238    -0.57500
O551        O  0.69171768  0.93763665  0.19622360    -0.70000
O552        O  0.80813938  0.95140976  0.14615015    -0.68800
Cu553      Cu  0.75030478  0.53892795  0.17590269     1.04600
Cu554      Cu  0.75046496  0.94131176  0.17110684     1.04300
C555        C  0.82502351  0.99927821  0.14008880     0.97500
C556        C  0.67310599  0.98093015  0.20628278     0.96600
C557        C  0.82907554  0.98133681  0.20568767     0.88800
C558        C  0.67451299  0.99886160  0.14049609     0.95000
C559        C  0.55077741  0.02928021  0.96993490     0.06500
C560        C  0.55028171  0.02307765  0.94536876     0.06500
C561        C  0.49979493  0.02035605  0.93336185    -0.14000
C562        C  0.94921930  0.02284207  0.94530459     0.06500
C563        C  0.94851865  0.02922709  0.96985624     0.06500
C564        C  0.49959299  0.03334412  0.98191360    -0.14000
H565        H  0.49949642  0.53954874  0.00060710     0.08500
H566        H  0.49986891  0.01543226  0.91441865     0.08500
O567        O  0.80900289  0.52821040  0.83703898    -0.68700
O568        O  0.69180946  0.54814425  0.88667689    -0.69700
O569        O  0.80836516  0.54756782  0.88649032    -0.58300
O570        O  0.69019661  0.52884532  0.83728217    -0.66700
O571        O  0.68996327  0.93834143  0.84378165    -0.66300
O572        O  0.80788208  0.95699252  0.89300685    -0.57500
O573        O  0.69145617  0.95754118  0.89311932    -0.70000
O574        O  0.80868664  0.93774557  0.84358250    -0.68800
Cu575      Cu  0.74987241  0.54135330  0.86154856     1.04600
Cu576      Cu  0.74949422  0.94442844  0.86850403     1.04300
C577        C  0.82743402  0.97987298  0.83261469     0.97500
C578        C  0.67460835  0.00608144  0.89808757     0.96600
C579        C  0.82518276  0.00540180  0.89792642     0.88800
C580        C  0.67129737  0.98065924  0.83293821     0.95000
O581        O  0.95655400  0.75997840  0.64818966    -0.68700
O582        O  0.95680621  0.64278025  0.69803492    -0.69700
O583        O  0.95640281  0.75842194  0.69839413    -0.58300
O584        O  0.95682363  0.64412605  0.64778462    -0.66700
O585        O  0.54940066  0.64421059  0.64775502    -0.66300
O586        O  0.54899208  0.75878358  0.69846973    -0.57500
O587        O  0.54936402  0.64291780  0.69811703    -0.70000
O588        O  0.54911794  0.76023081  0.64818084    -0.68800
Cu589      Cu  0.95340870  0.70131690  0.67308848     1.04600
Cu590      Cu  0.55252598  0.70154758  0.67311953     1.04300
C591        C  0.00277728  0.77751421  0.64002708     0.97500
C592        C  0.00305748  0.62562086  0.70631442     0.96600
C593        C  0.00257401  0.77538044  0.70675837     0.88800
C594        C  0.00309459  0.62721084  0.63949292     0.95000
C595        C  0.99232337  0.50325168  0.56762463     0.06500
C596        C  0.99902053  0.50282022  0.59218378     0.06500
C597        C  0.00219794  0.95277996  0.60428091    -0.14000
C598        C  0.99933878  0.90243110  0.59249339     0.06500
C599        C  0.99300319  0.90145388  0.56790600     0.06500
C600        C  0.98855778  0.95220622  0.55570259    -0.14000
H601        H  0.98190991  0.95195789  0.53705626     0.08500
H602        H  0.00680394  0.95302557  0.62323767     0.08500
C603        C  0.99539656  0.65166235  0.53157080     0.06500
C604        C  0.50252478  0.65199152  0.50695491     0.06500
C605        C  0.50660398  0.70301335  0.49501254    -0.14000
C606        C  0.50373025  0.75368166  0.50720557     0.06500
C607        C  0.99655615  0.75335213  0.53181707     0.06500
C608        C  0.99252160  0.70233549  0.54376224    -0.14000
H609        H  0.98723383  0.70206021  0.56265746     0.08500
H610        H  0.51191295  0.70329375  0.47611877     0.08500
C611        C  0.50047562  0.89845403  0.75522014     0.90700
C612        C  0.55064062  0.90479285  0.77163167    -0.49500
C613        C  0.54999749  0.95292219  0.78407435     0.13600
C614        C  0.49951229  0.49029111  0.77883606     0.24600
C615        C  0.94915415  0.90460125  0.77102583    -0.50200
C616        C  0.94878852  0.95271917  0.78351124     0.13800
C617        C  0.50094011  0.94981773  0.73976931    -0.49800
C618        C  0.00053562  0.49782120  0.75194761     0.14300
H619        H  0.58326889  0.87399210  0.77341007     0.18800
H620        H  0.49917497  0.52956955  0.78888134     0.04600
H621        H  0.91671612  0.87352208  0.77250434     0.19100
H622        H  0.50184813  0.94840496  0.72069494     0.18900
C623        C  0.50085952  0.50275120  0.44627628     0.06500
C624        C  0.50639542  0.50378219  0.47088999     0.06500
C625        C  0.51058402  0.95303373  0.48309842    -0.14000
C626        C  0.50747317  0.90199149  0.47112829     0.06500
C627        C  0.50182928  0.90237748  0.44651642     0.06500
C628        C  0.49891887  0.95243033  0.43442985    -0.14000
H629        H  0.49498193  0.95221831  0.41544649     0.08500
H630        H  0.51647457  0.95327046  0.50178579     0.08500
O631        O  0.95060768  0.64472861  0.39054368    -0.68700
O632        O  0.95147617  0.76193413  0.34075426    -0.69700
O633        O  0.95089519  0.64613797  0.34020408    -0.58300
O634        O  0.95130757  0.76076636  0.39103837    -0.66700
O635        O  0.54387309  0.76011399  0.39105513    -0.66300
O636        O  0.54346617  0.64588900  0.34030027    -0.57500
O637        O  0.54406478  0.76146165  0.34088593    -0.70000
O638        O  0.54318667  0.64431020  0.39052678    -0.68800
Cu639      Cu  0.94775454  0.70339430  0.36564383     1.04600
Cu640      Cu  0.54688056  0.70290866  0.36570680     1.04300
C641        C  0.49683734  0.62719889  0.39870214     0.97500
C642        C  0.49793814  0.77891966  0.33262820     0.96600
C643        C  0.49720257  0.62925604  0.33188931     0.88800
C644        C  0.49772655  0.77749762  0.39930302     0.95000
C645        C  0.99996072  0.90255429  0.28404608     0.90700
C646        C  0.94988605  0.90830190  0.26752074    -0.49500
C647        C  0.95051250  0.95607515  0.25473971     0.13600
C648        C  0.00087385  0.49367966  0.25976780     0.24600
C649        C  0.55138795  0.90837007  0.26826972    -0.50200
C650        C  0.55171243  0.95613536  0.25546306     0.13800
C651        C  0.99927391  0.95438489  0.29911364    -0.49800
C652        C  0.49966818  0.50198622  0.28656834     0.14300
H653        H  0.91728890  0.87742457  0.26594579     0.18800
H654        H  0.00121964  0.53266406  0.24945055     0.04600
H655        H  0.58398454  0.87739748  0.26708527     0.19100
H656        H  0.99830588  0.95358758  0.31819550     0.18900
C657        C  0.49842265  0.81799519  0.31377502    -0.09000
C658        C  0.49921864  0.85312026  0.29881713    -0.10600
C659        C  0.49839768  0.55398442  0.29864087    -0.09000
C660        C  0.49741944  0.59058764  0.31289747    -0.10600
C661        C  0.49821565  0.81675307  0.41808501    -0.09000
C662        C  0.49960773  0.85277259  0.43261885    -0.10600
C663        C  0.49687766  0.58771193  0.41742461    -0.09000
C664        C  0.49816492  0.55196127  0.43211531    -0.10600
C665        C  0.50856949  0.84993434  0.48409682    -0.09000
C666        C  0.50730665  0.80579656  0.49430894    -0.10600
C667        C  0.50538200  0.60018728  0.49384834    -0.09000
C668        C  0.50669643  0.55611461  0.48363058    -0.10600
C669        C  0.99233875  0.84916570  0.55516258    -0.09000
C670        C  0.99362099  0.80513576  0.54492289    -0.10600
C671        C  0.99083674  0.55534963  0.55466616    -0.09000
C672        C  0.99191017  0.59952874  0.54447055    -0.10600
C673        C  0.00255543  0.81725968  0.62135189    -0.09000
C674        C  0.00157785  0.85316734  0.60669482    -0.10600
C675        C  0.00154046  0.55237952  0.60605612    -0.09000
C676        C  0.00287623  0.58823584  0.62064067    -0.10600
C677        C  0.00215924  0.81363556  0.72584132    -0.09000
C678        C  0.00128915  0.84863240  0.74078732    -0.10600
C679        C  0.00184779  0.54948604  0.73945033    -0.09000
C680        C  0.00283764  0.58612655  0.72511337    -0.10600
C681        C  0.87002358  0.97267747  0.81507125    -0.09000
C682        C  0.90588117  0.96504474  0.80053982    -0.10600
C683        C  0.62831124  0.97378109  0.81561191    -0.09000
C684        C  0.59236712  0.96590885  0.80118227    -0.10600
C685        C  0.86403705  0.01253508  0.91668648    -0.09000
C686        C  0.89957771  0.01789736  0.93137165    -0.10600
C687        C  0.60005477  0.01855327  0.93148391    -0.09000
C688        C  0.63572610  0.01340727  0.91683559    -0.10600
C689        C  0.87214774  0.97603512  0.22308749    -0.09000
C690        C  0.90811594  0.96867982  0.23756913    -0.11200
C691        C  0.59481569  0.96831043  0.23852719    -0.09000
C692        C  0.63070357  0.97548482  0.22398221    -0.10600
C693        C  0.85261785  0.02926812  0.99346740    -0.09000
C694        C  0.89634395  0.03006361  0.98282151    -0.10600
C695        C  0.60285449  0.02995862  0.98298839    -0.09000
C696        C  0.64657080  0.02904368  0.99365437    -0.10600
C697        C  0.89943572  0.00749575  0.10646650    -0.09000
C698        C  0.86373189  0.00431486  0.12117854    -0.10600
C699        C  0.59990710  0.00692072  0.10684718    -0.09000
C700        C  0.63547959  0.00373299  0.12164822    -0.10600
C701        C  0.89676073  0.51649751  0.05493343    -0.09000
C702        C  0.85296760  0.51917471  0.04438171    -0.10600
C703        C  0.64696028  0.51869101  0.04459733    -0.09000
C704        C  0.60329444  0.51597380  0.05521945    -0.10600
loop_ 
_geom_bond_atom_site_label_1 
_geom_bond_atom_site_label_2 
_geom_bond_distance 
_geom_bond_site_symmetry_2 
_ccdc_geom_bond_type 
C1            C6   1.410       .  A
C1          C178   1.408       .  A
C1          C176   1.454       .  S
C2          C177   1.408       .  A
C2          C355   1.394   1_455  A
C2          C171   1.438       .  S
C3            C4   1.394       .  A
C3          C354   1.394       .  A
C3            H8   1.086       .  S
C4          C181   1.408       .  A
C4          C169   1.436       .  S
C5          C180   1.408       .  A
C5          C358   1.409       .  A
C5          C173   1.455       .  S
C6          C357   1.409   1_455  A
C6            H7   1.076       .  S
C9           C10   1.412       .  A
C9           C14   1.409       .  A
C9          C175   1.455       .  S
C10          C11   1.409   1_554  A
C10         C344   1.457   1_554  S
C11          C12   1.409   1_556  A
C11          H16   1.085       .  S
C12          C13   1.412       .  A
C12         C341   1.456   1_554  S
C13          C14   1.409       .  A
C13         C174   1.456       .  S
C14          H15   1.085       .  S
O17         Cu25   2.004       .  S
O17         C203   1.276   1_545  A
O18         Cu25   2.017       .  S
O18         C204   1.277   1_545  A
O19         Cu25   2.017       .  S
O19         C205   1.277   1_545  A
O20         Cu25   2.007       .  S
O20         C206   1.276   1_545  A
O21         Cu26   2.002       .  S
O21          C30   1.275       .  A
O22         Cu26   2.011       .  S
O22          C29   1.277       .  A
O23         Cu26   2.012       .  S
O23          C28   1.277       .  A
O24         Cu26   2.000       .  S
O24          C27   1.275       .  A
Cu25       Cu202   2.380   1_545  S
Cu26       Cu201   2.380       .  S
C27         C170   1.428       .  S
C27         O193   1.276       .  A
C28         C164   1.439       .  S
C28         O194   1.277       .  A
C29         C161   1.439       .  S
C29         O195   1.277       .  A
C30         C172   1.430       .  S
C30         O196   1.276       .  A
C31          C32   1.408       .  A
C31          C36   1.410   1_455  A
C31         C167   1.455       .  S
C32          C33   1.394   1_455  A
C32         C159   1.438       .  S
C33         C386   1.394       .  A
C33          H38   1.086       .  S
C34          C35   1.408       .  A
C34         C385   1.394       .  A
C34         C158   1.438       .  S
C35         C388   1.410       .  A
C35         C166   1.455       .  S
C36         C387   1.410       .  A
C36         H213   1.076   1_556  S
H37         C212   1.076   1_554  S
O39         Cu47   2.018       .  S
O39         C225   1.277   1_545  A
O40         Cu47   2.006       .  S
O40         C226   1.276       .  A
O41         Cu47   2.004       .  S
O41         C227   1.276       .  A
O42         Cu47   2.015       .  S
O42         C228   1.277   1_545  A
O43         Cu48   2.013       .  S
O43          C52   1.277       .  A
O44         Cu48   2.003       .  S
O44          C51   1.276       .  A
O45         Cu48   2.004       .  S
O45          C50   1.276       .  A
O46         Cu48   2.016       .  S
O46          C49   1.277       .  A
Cu47       Cu224   2.380   1_545  S
Cu48       Cu223   2.380       .  S
C49         C153   1.441       .  S
C49         O215   1.277       .  A
C50         C160   1.430       .  S
C50         O216   1.276       .  A
C51         C157   1.430       .  S
C51         O217   1.276       .  A
C52         C155   1.439       .  S
C52         O218   1.277       .  A
O53         Cu61   2.007       .  S
O53          C63   1.276       .  A
O54         Cu61   2.007       .  S
O54          C64   1.276       .  A
O55         Cu61   2.001       .  S
O55          C65   1.275       .  A
O56         Cu61   2.003       .  S
O56          C66   1.276       .  A
O57         Cu62   2.008       .  S
O57         C418   1.276       .  A
O58         Cu62   2.006       .  S
O58         C417   1.276       .  A
O59         Cu62   2.011       .  S
O59         C416   1.277       .  A
O60         Cu62   2.010       .  S
O60         C415   1.276       .  A
Cu61       Cu414   2.381       .  S
Cu62       Cu413   2.381   1_455  S
C63         C145   1.434       .  S
C63         O412   1.276       .  A
C64         C152   1.435       .  S
C64         O411   1.277       .  A
C65         C149   1.430       .  S
C65         O410   1.276       .  A
C66         C148   1.432       .  S
C66         O409   1.276       .  A
C67          C68   1.409       .  A
C67         C248   1.415   1_545  A
C67         C143   1.461       .  S
C68         C245   1.395   1_545  A
C68         C147   1.440       .  S
C69          C70   1.395       .  A
C69         C244   1.395       .  A
C69          H74   1.086       .  S
C70          C71   1.410       .  A
C70         C146   1.441       .  S
C71          C72   1.415       .  A
C71         C141   1.461       .  S
C72         C243   1.415       .  A
C72          H73   1.075       .  S
C75          C80   1.413       .  A
C75         C428   1.413       .  A
C75         C144   1.462       .  S
C76          C77   1.413       .  A
C76         C427   1.413   1_455  A
C76         C139   1.463       .  S
C77          C78   1.413       .  A
C77          H82   1.084       .  S
C78         C431   1.413   1_455  A
C78         C138   1.462       .  S
C79          C80   1.413       .  A
C79         C430   1.413       .  A
C79         C142   1.463       .  S
C80          H81   1.084       .  S
C83          C84   1.533       .  S
C83          C89   1.523       .  S
C83         C439   1.534   1_455  S
C83         C502   1.462       .  S
C84          H91   1.087       .  S
C84          C85   1.366       .  D
C85         C262   1.542   1_455  S
C85         C156   1.444       .  S
C86         C261   1.542   1_655  S
C86         C442   1.543   1_655  S
C86         C616   1.544       .  S
C86          H92   1.111   1_565  S
C87         C435   1.534       .  S
C87          H93   1.086       .  S
C87          C88   1.367       .  D
C88         C614   1.544       .  S
C88         C154   1.447       .  S
C89          H94   1.088       .  S
C89         C618   1.355       .  D
C90         C438   1.543       .  S
C90         C617   1.355       .  D
C90         C151   1.439   1_565  S
C95          C96   1.409       .  A
C95         C276   1.395   1_445  A
C95         C136   1.439   1_455  S
C96         C273   1.415   1_545  A
C96         C140   1.462       .  S
C97          C98   1.415       .  A
C97         C272   1.415       .  A
C97         H102   1.075       .  S
C98          C99   1.409       .  A
C98         C137   1.460       .  S
C99         C100   1.395   1_455  A
C99         C134   1.441   1_455  S
C100        C271   1.395   1_655  A
C100        H101   1.086       .  S
O103       Cu111   2.007       .  S
O103        C465   1.276       .  A
O104       Cu111   2.006       .  S
O104        C466   1.276       .  A
O105       Cu111   2.010       .  S
O105        C467   1.277       .  A
O106       Cu111   2.010       .  S
O106        C468   1.277       .  A
O107       Cu112   2.005       .  S
O107        C116   1.276   1_455  A
O108       Cu112   2.005       .  S
O108        C115   1.276   1_455  A
O109       Cu112   2.002       .  S
O109        C114   1.275   1_455  A
O110       Cu112   2.004       .  S
O110        C113   1.276   1_455  A
Cu111      Cu464   2.381       .  S
Cu112      Cu463   2.381   1_455  S
C113        C135   1.431       .  S
C113        O455   1.276       .  A
C114        C129   1.430       .  S
C114        O456   1.276       .  A
C115        C132   1.433       .  S
C115        O457   1.277       .  A
C116        C133   1.433       .  S
C116        O458   1.277       .  A
C117        C118   1.534       .  S
C117        C123   1.522       .  S
C117        C473   1.534       .  S
C117        C482   1.462       .  S
C118        H125   1.087       .  S
C118        C119   1.366       .  D
C119        C296   1.541       .  S
C119        C162   1.444       .  S
C120        C295   1.541       .  S
C120        C476   1.541   1_565  S
C120        C650   1.542       .  S
C120        H126   1.111   1_565  S
C121        C469   1.534   1_455  S
C121        H127   1.086       .  S
C121        C122   1.367       .  D
C122        C648   1.542       .  S
C122        C163   1.446       .  S
C123        H128   1.088       .  S
C123        C652   1.355       .  D
C124        C472   1.541   1_645  S
C124        C651   1.355   1_545  D
C124        C131   1.437       .  S
C129        C130   1.203       .  T
C130        C469   1.462       .  S
C131        C132   1.204       .  T
C133        C134   1.205       .  T
C135        C136   1.204       .  T
C137        C138   1.216       .  T
C139        C140   1.217       .  T
C141        C142   1.217       .  T
C143        C144   1.217       .  T
C145        C146   1.205       .  T
C147        C148   1.204       .  T
C149        C150   1.203       .  T
C150        C435   1.462       .  S
C151        C152   1.205       .  T
C153        C154   1.209       .  T
C155        C156   1.208       .  T
C157        C158   1.203       .  T
C159        C160   1.203       .  T
C161        C162   1.208       .  T
C163        C164   1.208       .  T
C165        C188   1.456   1_556  S
C165        C166   1.213       .  T
C167        C168   1.213       .  T
C168        C186   1.457   1_556  S
C169        C170   1.202       .  T
C171        C172   1.203       .  T
C173        C174   1.213       .  T
C175        C176   1.213       .  T
C177        C182   1.410       .  A
C177        C352   1.454       .  S
C178        C531   1.394   1_455  A
C178        C347   1.438       .  S
C179        C530   1.394       .  A
C179        C180   1.394       .  A
C179        H184   1.086       .  S
C180        C345   1.436       .  S
C181        C534   1.409       .  A
C181        C349   1.455       .  S
C182        C533   1.409   1_455  A
C182        H183   1.076       .  S
C185        C186   1.412       .  A
C185        C190   1.409       .  A
C185        C351   1.455       .  S
C186        C187   1.409   1_554  A
C187        C188   1.409   1_556  A
C187        H192   1.085       .  S
C188        C189   1.412       .  A
C189        C190   1.409       .  A
C189        C350   1.456       .  S
C190        H191   1.085       .  S
O193       Cu201   2.004       .  S
O194       Cu201   2.017       .  S
O195       Cu201   2.017       .  S
O196       Cu201   2.007       .  S
O197       Cu202   2.002       .  S
O197        C206   1.275       .  A
O198       Cu202   2.011       .  S
O198        C205   1.277       .  A
O199       Cu202   2.012       .  S
O199        C204   1.277       .  A
O200       Cu202   2.000       .  S
O200        C203   1.275       .  A
C203        C346   1.428   1_565  S
C204        C340   1.439       .  S
C205        C337   1.439       .  S
C206        C348   1.430   1_565  S
C207        C208   1.408       .  A
C207        C212   1.410   1_455  A
C207        C343   1.455       .  S
C208        C209   1.394   1_455  A
C208        C335   1.438       .  S
C209        C562   1.394       .  A
C209        H214   1.086       .  S
C210        C561   1.394       .  A
C210        C211   1.408       .  A
C210        C334   1.438       .  S
C211        C564   1.410       .  A
C211        C342   1.455       .  S
C212        C563   1.410       .  A
O215       Cu223   2.018       .  S
O216       Cu223   2.006       .  S
O217       Cu223   2.004       .  S
O218       Cu223   2.015       .  S
O219       Cu224   2.013       .  S
O219        C228   1.277       .  A
O220       Cu224   2.003       .  S
O220        C227   1.276   1_565  A
O221       Cu224   2.004       .  S
O221        C226   1.276   1_565  A
O222       Cu224   2.016       .  S
O222        C225   1.277       .  A
C225        C329   1.441       .  S
C226        C336   1.430       .  S
C227        C333   1.430       .  S
C228        C331   1.439       .  S
O229       Cu237   2.007       .  S
O229        C239   1.276       .  A
O230       Cu237   2.007       .  S
O230        C240   1.276       .  A
O231       Cu237   2.001       .  S
O231        C241   1.275       .  A
O232       Cu237   2.003       .  S
O232        C242   1.276       .  A
O233       Cu238   2.008       .  S
O233        C594   1.276       .  A
O234       Cu238   2.006       .  S
O234        C593   1.276       .  A
O235       Cu238   2.011       .  S
O235        C592   1.277       .  A
O236       Cu238   2.010       .  S
O236        C591   1.276       .  A
Cu237      Cu590   2.381       .  S
Cu238      Cu589   2.381   1_455  S
C239        C321   1.434       .  S
C239        O588   1.276       .  A
C240        C328   1.435       .  S
C240        O587   1.277       .  A
C241        C325   1.430       .  S
C241        O586   1.276       .  A
C242        C324   1.432       .  S
C242        O585   1.276       .  A
C243        C244   1.409       .  A
C243        C319   1.461       .  S
C244        C323   1.440       .  S
C245        C246   1.395       .  A
C245        H250   1.086       .  S
C246        C247   1.410       .  A
C246        C322   1.441       .  S
C247        C248   1.415       .  A
C247        C317   1.461       .  S
C248        H249   1.075       .  S
C251        C604   1.413       .  A
C251        C256   1.413       .  A
C251        C320   1.462       .  S
C252        C603   1.413   1_455  A
C252        C253   1.413       .  A
C252        C315   1.463       .  S
C253        C254   1.413       .  A
C253        H258   1.084       .  S
C254        C607   1.413   1_455  A
C254        C314   1.462       .  S
C255        C606   1.413       .  A
C255        C256   1.413       .  A
C255        C318   1.463       .  S
C256        H257   1.084       .  S
C259        C260   1.533       .  S
C259        C265   1.523       .  S
C259        C615   1.534   1_455  S
C259        C678   1.462       .  S
C260        H267   1.087       .  S
C260        C261   1.366       .  D
C261        C332   1.444       .  S
C262        C618   1.543   1_655  S
C262        C440   1.544       .  S
C262        H268   1.111       .  S
C263        C611   1.534       .  S
C263        H269   1.086       .  S
C263        C264   1.367       .  D
C264        C438   1.544       .  S
C264        C330   1.447       .  S
C265        H270   1.088       .  S
C265        C442   1.355       .  D
C266        C614   1.543       .  S
C266        C441   1.355       .  D
C266        C327   1.439       .  S
C271        C272   1.409       .  A
C271        C312   1.439   1_455  S
C272        C316   1.462       .  S
C273        C274   1.415       .  A
C273        H278   1.075       .  S
C274        C275   1.409       .  A
C274        C313   1.460       .  S
C275        C276   1.395   1_455  A
C275        C310   1.441   1_455  S
C276        H277   1.086       .  S
O279       Cu287   2.007       .  S
O279        C641   1.276       .  A
O280       Cu287   2.006       .  S
O280        C642   1.276       .  A
O281       Cu287   2.010       .  S
O281        C643   1.277       .  A
O282       Cu287   2.010       .  S
O282        C644   1.277       .  A
O283       Cu288   2.005       .  S
O283        C292   1.276   1_455  A
O284       Cu288   2.005       .  S
O284        C291   1.276   1_455  A
O285       Cu288   2.002       .  S
O285        C290   1.275   1_455  A
O286       Cu288   2.004       .  S
O286        C289   1.276   1_455  A
Cu287      Cu640   2.381       .  S
Cu288      Cu639   2.381   1_455  S
C289        C311   1.431       .  S
C289        O631   1.276       .  A
C290        C305   1.430       .  S
C290        O632   1.276       .  A
C291        C308   1.433       .  S
C291        O633   1.277       .  A
C292        C309   1.433       .  S
C292        O634   1.277       .  A
C293        C294   1.534       .  S
C293        C299   1.522       .  S
C293        C649   1.534       .  S
C293        C658   1.462       .  S
C294        H301   1.086       .  S
C294        C295   1.366       .  D
C295        C338   1.444       .  S
C296        C652   1.541       .  S
C296        C474   1.542       .  S
C296        H302   1.111       .  S
C297        C645   1.534   1_455  S
C297        H303   1.086       .  S
C297        C298   1.367       .  D
C298        C472   1.542       .  S
C298        C339   1.446       .  S
C299        H304   1.088       .  S
C299        C476   1.355   1_565  D
C300        C648   1.541   1_655  S
C300        C475   1.355       .  D
C300        C307   1.437       .  S
C305        C306   1.203       .  T
C306        C645   1.462       .  S
C307        C308   1.204       .  T
C309        C310   1.205       .  T
C311        C312   1.204       .  T
C313        C314   1.216       .  T
C315        C316   1.217       .  T
C317        C318   1.217       .  T
C319        C320   1.217       .  T
C321        C322   1.205       .  T
C323        C324   1.204       .  T
C325        C326   1.203       .  T
C326        C611   1.462       .  S
C327        C328   1.205       .  T
C329        C330   1.209       .  T
C331        C332   1.208       .  T
C333        C334   1.203       .  T
C335        C336   1.203       .  T
C337        C338   1.208       .  T
C339        C340   1.208       .  T
C341        C342   1.213       .  T
C343        C344   1.213       .  T
C345        C346   1.202       .  T
C347        C348   1.203       .  T
C349        C350   1.213       .  T
C351        C352   1.213       .  T
C353        C530   1.408       .  A
C353        C358   1.410       .  A
C353        C528   1.454       .  S
C354        C529   1.408       .  A
C354        C523   1.438       .  S
C355        C356   1.394       .  A
C355        H360   1.086       .  S
C356        C533   1.408       .  A
C356        C521   1.436       .  S
C357        C532   1.408       .  A
C357        C525   1.455       .  S
C358        H359   1.076       .  S
C361        C362   1.412       .  A
C361        C366   1.409       .  A
C361        C527   1.455       .  S
C362        C363   1.409   1_554  A
C362        C696   1.457   1_554  S
C363        C364   1.409   1_556  A
C363        H368   1.085       .  S
C364        C365   1.412       .  A
C364        C693   1.456   1_554  S
C365        C366   1.409       .  A
C365        C526   1.456       .  S
C366        H367   1.085       .  S
O369       Cu377   2.004       .  S
O369        C555   1.276   1_545  A
O370       Cu377   2.017       .  S
O370        C556   1.277   1_545  A
O371       Cu377   2.017       .  S
O371        C557   1.277   1_545  A
O372       Cu377   2.007       .  S
O372        C558   1.276   1_545  A
O373       Cu378   2.002       .  S
O373        C382   1.275       .  A
O374       Cu378   2.011       .  S
O374        C381   1.277       .  A
O375       Cu378   2.012       .  S
O375        C380   1.277       .  A
O376       Cu378   2.000       .  S
O376        C379   1.275       .  A
Cu377      Cu554   2.380   1_545  S
Cu378      Cu553   2.380       .  S
C379        C522   1.428       .  S
C379        O545   1.276       .  A
C380        C516   1.439       .  S
C380        O546   1.277       .  A
C381        C513   1.439       .  S
C381        O547   1.277       .  A
C382        C524   1.430       .  S
C382        O548   1.276       .  A
C383        C384   1.408       .  A
C383        C388   1.410       .  A
C383        C519   1.455       .  S
C384        C385   1.394       .  A
C384        C511   1.438       .  S
C385        H390   1.086       .  S
C386        C387   1.408       .  A
C386        C510   1.438       .  S
C387        C518   1.455       .  S
C388        H565   1.076   1_556  S
H389        C564   1.076   1_554  S
O391       Cu399   2.018       .  S
O391        C577   1.277   1_545  A
O392       Cu399   2.006       .  S
O392        C578   1.276       .  A
O393       Cu399   2.004       .  S
O393        C579   1.276       .  A
O394       Cu399   2.015       .  S
O394        C580   1.277   1_545  A
O395       Cu400   2.013       .  S
O395        C404   1.277       .  A
O396       Cu400   2.003       .  S
O396        C403   1.276       .  A
O397       Cu400   2.004       .  S
O397        C402   1.276       .  A
O398       Cu400   2.016       .  S
O398        C401   1.277       .  A
Cu399      Cu576   2.380   1_545  S
Cu400      Cu575   2.380       .  S
C401        C505   1.441       .  S
C401        O567   1.277       .  A
C402        C512   1.430       .  S
C402        O568   1.276       .  A
C403        C509   1.430       .  S
C403        O569   1.276       .  A
C404        C507   1.439       .  S
C404        O570   1.277       .  A
O405       Cu413   2.007       .  S
O405        C415   1.276   1_655  A
O406       Cu413   2.007       .  S
O406        C416   1.276   1_655  A
O407       Cu413   2.001       .  S
O407        C417   1.275   1_655  A
O408       Cu413   2.003       .  S
O408        C418   1.276   1_655  A
O409       Cu414   2.008       .  S
O410       Cu414   2.006       .  S
O411       Cu414   2.011       .  S
O412       Cu414   2.010       .  S
C415        C497   1.434       .  S
C416        C504   1.435       .  S
C417        C501   1.430       .  S
C418        C500   1.432       .  S
C419        C420   1.409       .  A
C419        C600   1.415   1_545  A
C419        C495   1.461       .  S
C420        C597   1.395   1_645  A
C420        C499   1.440   1_655  S
C421        C596   1.395   1_455  A
C421        C422   1.395   1_455  A
C421        H426   1.086       .  S
C422        C423   1.410       .  A
C422        C498   1.441   1_655  S
C423        C424   1.415       .  A
C423        C493   1.461       .  S
C424        C595   1.415       .  A
C424        H425   1.075       .  S
C427        C432   1.413       .  A
C427        C496   1.462       .  S
C428        C429   1.413       .  A
C428        C491   1.463       .  S
C429        C430   1.413       .  A
C429        H434   1.084       .  S
C430        C490   1.462       .  S
C431        C432   1.413       .  A
C431        C494   1.463       .  S
C432        H433   1.084       .  S
C435        C436   1.533       .  S
C435        C441   1.523       .  S
C436        H443   1.087       .  S
C436        C437   1.366       .  D
C437        C614   1.542       .  S
C437        C508   1.444       .  S
C438        C613   1.542       .  S
C438        H444   1.111   1_565  S
C439        H445   1.086       .  S
C439        C440   1.367       .  D
C440        C506   1.447       .  S
C441        H446   1.088       .  S
C442        C503   1.439   1_565  S
C447        C448   1.409       .  A
C447        C628   1.395   1_545  A
C447        C488   1.439       .  S
C448        C625   1.415   1_545  A
C448        C492   1.462       .  S
C449        C624   1.415       .  A
C449        C450   1.415       .  A
C449        H454   1.075       .  S
C450        C451   1.409       .  A
C450        C489   1.460       .  S
C451        C452   1.395       .  A
C451        C486   1.441       .  S
C452        C623   1.395       .  A
C452        H453   1.086       .  S
O455       Cu463   2.007       .  S
O456       Cu463   2.006       .  S
O457       Cu463   2.010       .  S
O458       Cu463   2.010       .  S
O459       Cu464   2.005       .  S
O459        C468   1.276       .  A
O460       Cu464   2.005       .  S
O460        C467   1.276       .  A
O461       Cu464   2.002       .  S
O461        C466   1.275       .  A
O462       Cu464   2.004       .  S
O462        C465   1.276       .  A
C465        C487   1.431       .  S
C466        C481   1.430       .  S
C467        C484   1.433       .  S
C468        C485   1.433       .  S
C469        C470   1.534       .  S
C469        C475   1.522       .  S
C470        H477   1.086       .  S
C470        C471   1.366       .  D
C471        C648   1.541   1_655  S
C471        C514   1.444       .  S
C472        C647   1.541   1_455  S
C472        H478   1.111   1_565  S
C473        H479   1.086       .  S
C473        C474   1.367       .  D
C474        C515   1.446       .  S
C475        H480   1.088       .  S
C476        C483   1.437       .  S
C481        C482   1.203       .  T
C483        C484   1.204       .  T
C485        C486   1.205       .  T
C487        C488   1.204       .  T
C489        C490   1.216       .  T
C491        C492   1.217       .  T
C493        C494   1.217       .  T
C495        C496   1.217       .  T
C497        C498   1.205       .  T
C499        C500   1.204       .  T
C501        C502   1.203       .  T
C503        C504   1.205       .  T
C505        C506   1.209       .  T
C507        C508   1.208       .  T
C509        C510   1.203       .  T
C511        C512   1.203       .  T
C513        C514   1.208       .  T
C515        C516   1.208       .  T
C517        C540   1.456   1_556  S
C517        C518   1.213       .  T
C519        C520   1.213       .  T
C520        C538   1.457   1_556  S
C521        C522   1.202       .  T
C523        C524   1.203       .  T
C525        C526   1.213       .  T
C527        C528   1.213       .  T
C529        C534   1.410       .  A
C529        C704   1.454       .  S
C530        C699   1.438       .  S
C531        C532   1.394       .  A
C531        H536   1.086       .  S
C532        C697   1.436       .  S
C533        C701   1.455       .  S
C534        H535   1.075       .  S
C537        C538   1.412       .  A
C537        C542   1.409       .  A
C537        C703   1.455       .  S
C538        C539   1.409   1_554  A
C539        C540   1.409   1_556  A
C539        H544   1.085       .  S
C540        C541   1.412       .  A
C541        C542   1.409       .  A
C541        C702   1.456       .  S
C542        H543   1.085       .  S
O545       Cu553   2.004       .  S
O546       Cu553   2.017       .  S
O547       Cu553   2.017       .  S
O548       Cu553   2.007       .  S
O549       Cu554   2.002       .  S
O549        C558   1.275       .  A
O550       Cu554   2.011       .  S
O550        C557   1.277       .  A
O551       Cu554   2.012       .  S
O551        C556   1.277       .  A
O552       Cu554   2.000       .  S
O552        C555   1.275       .  A
C555        C698   1.428   1_565  S
C556        C692   1.439       .  S
C557        C689   1.439       .  S
C558        C700   1.430   1_565  S
C559        C560   1.408       .  A
C559        C564   1.410       .  A
C559        C695   1.455       .  S
C560        C561   1.394       .  A
C560        C687   1.438       .  S
C561        H566   1.086       .  S
C562        C563   1.408       .  A
C562        C686   1.438       .  S
C563        C694   1.455       .  S
O567       Cu575   2.018       .  S
O568       Cu575   2.006       .  S
O569       Cu575   2.004       .  S
O570       Cu575   2.015       .  S
O571       Cu576   2.013       .  S
O571        C580   1.277       .  A
O572       Cu576   2.003       .  S
O572        C579   1.276   1_565  A
O573       Cu576   2.004       .  S
O573        C578   1.276   1_565  A
O574       Cu576   2.016       .  S
O574        C577   1.277       .  A
C577        C681   1.441       .  S
C578        C688   1.430       .  S
C579        C685   1.430       .  S
C580        C683   1.439       .  S
O581       Cu589   2.007       .  S
O581        C591   1.276   1_655  A
O582       Cu589   2.007       .  S
O582        C592   1.276   1_655  A
O583       Cu589   2.001       .  S
O583        C593   1.275   1_655  A
O584       Cu589   2.003       .  S
O584        C594   1.276   1_655  A
O585       Cu590   2.008       .  S
O586       Cu590   2.006       .  S
O587       Cu590   2.011       .  S
O588       Cu590   2.010       .  S
C591        C673   1.434       .  S
C592        C680   1.435       .  S
C593        C677   1.430       .  S
C594        C676   1.432       .  S
C595        C596   1.409       .  A
C595        C671   1.461       .  S
C596        C675   1.440   1_655  S
C597        C598   1.395   1_455  A
C597        H602   1.086       .  S
C598        C599   1.410       .  A
C598        C674   1.441   1_655  S
C599        C600   1.415       .  A
C599        C669   1.461       .  S
C600        H601   1.075       .  S
C603        C608   1.413       .  A
C603        C672   1.462       .  S
C604        C605   1.413       .  A
C604        C667   1.463       .  S
C605        C606   1.413       .  A
C605        H610   1.084       .  S
C606        C666   1.462       .  S
C607        C608   1.413       .  A
C607        C670   1.463       .  S
C608        H609   1.084       .  S
C611        C612   1.533       .  S
C611        C617   1.523       .  S
C612        H619   1.087       .  S
C612        C613   1.366       .  D
C613        C684   1.444       .  S
C614        H620   1.111       .  S
C615        H621   1.086       .  S
C615        C616   1.367       .  D
C616        C682   1.447       .  S
C617        H622   1.088       .  S
C618        C679   1.439       .  S
C623        C624   1.409       .  A
C623        C664   1.439       .  S
C624        C668   1.462       .  S
C625        C626   1.415       .  A
C625        H630   1.074       .  S
C626        C627   1.409       .  A
C626        C665   1.460       .  S
C627        C628   1.395       .  A
C627        C662   1.441       .  S
C628        H629   1.086       .  S
O631       Cu639   2.007       .  S
O632       Cu639   2.006       .  S
O633       Cu639   2.010       .  S
O634       Cu639   2.010       .  S
O635       Cu640   2.005       .  S
O635        C644   1.276       .  A
O636       Cu640   2.005       .  S
O636        C643   1.276       .  A
O637       Cu640   2.002       .  S
O637        C642   1.275       .  A
O638       Cu640   2.004       .  S
O638        C641   1.276       .  A
C641        C663   1.431       .  S
C642        C657   1.430       .  S
C643        C660   1.433       .  S
C644        C661   1.433       .  S
C645        C646   1.534       .  S
C645        C651   1.522       .  S
C646        H653   1.087       .  S
C646        C647   1.366       .  D
C647        C690   1.444       .  S
C648        H654   1.111       .  S
C649        H655   1.086       .  S
C649        C650   1.367       .  D
C650        C691   1.446       .  S
C651        H656   1.088       .  S
C652        C659   1.437       .  S
C657        C658   1.203       .  T
C659        C660   1.204       .  T
C661        C662   1.205       .  T
C663        C664   1.204       .  T
C665        C666   1.216       .  T
C667        C668   1.217       .  T
C669        C670   1.217       .  T
C671        C672   1.217       .  T
C673        C674   1.205       .  T
C675        C676   1.204       .  T
C677        C678   1.203       .  T
C679        C680   1.205       .  T
C681        C682   1.209       .  T
C683        C684   1.208       .  T
C685        C686   1.203       .  T
C687        C688   1.203       .  T
C689        C690   1.208       .  T
C691        C692   1.208       .  T
C693        C694   1.213       .  T
C695        C696   1.213       .  T
C697        C698   1.202       .  T
C699        C700   1.203       .  T
C701        C702   1.213       .  T
C703        C704   1.213       .  T
