geometry optimzed in LAMMPS
_audit_creation_date              2020-11-30 
_audit_creation_method            'lammps2cif' 
_symmetry_space_group_name_H-M    'P1' 
_symmetry_Int_Tables_number       1 
_symmetry_cell_setting            triclinic 
loop_ 
_symmetry_equiv_pos_as_xyz 
  x,y,z 
_cell_length_a                    37.31139884 
_cell_length_b                    38.08054893188834 
_cell_length_c                    43.19922097858102 
_cell_angle_alpha                 90.35416776241308 
_cell_angle_beta                  91.04519452638803 
_cell_angle_gamma                 120.08565656373683 
loop_ 
_atom_site_label 
_atom_site_type_symbol 
_atom_site_fract_x 
_atom_site_fract_y 
_atom_site_fract_z 
_atom_site_charge 
C1          C  0.22341715  0.19726474  0.14703540     0.04100
C2          C  0.25261588  0.23361977  0.16199975    -0.12100
C3          C  0.28114902  0.26761244  0.14544576     0.01600
C4          C  0.27981444  0.26493551  0.11303630    -0.10600
C5          C  0.25198117  0.22841386  0.09766105     0.04100
C6          C  0.22409468  0.19456189  0.11459962    -0.10000
H7          H  0.25302512  0.23548068  0.18702317     0.09700
H8          H  0.30052305  0.29107167  0.09966456     0.07200
H9          H  0.20292729  0.16645925  0.10248998     0.07000
C10         C  0.23517426  0.20498221  0.41299264     0.04100
C11         C  0.23263210  0.20145328  0.44519857    -0.12100
C12         C  0.26250319  0.23270478  0.46440480     0.01600
C13         C  0.29457064  0.26797910  0.45138483    -0.10600
C14         C  0.29748421  0.27177470  0.41913046     0.04100
C15         C  0.26825493  0.23943943  0.40015697    -0.10000
H16         H  0.20701259  0.17497481  0.45529521     0.09700
H17         H  0.31607135  0.29292643  0.46635963     0.07200
H18         H  0.26987246  0.24213477  0.37518447     0.07000
C19         C  0.24633301  0.47702003  0.14723581     0.04100
C20         C  0.21114714  0.47322655  0.16120562    -0.12100
C21         C  0.18341147  0.48170051  0.14501082     0.01600
C22         C  0.18898380  0.48925762  0.11313242    -0.10600
C23         C  0.22127636  0.48778983  0.09801732     0.04100
C24         C  0.25098977  0.48336437  0.11534857    -0.10000
H25         H  0.20685819  0.46602632  0.18557868     0.09700
H26         H  0.16849516  0.49620619  0.09989061     0.07200
H27         H  0.27730385  0.48461501  0.10407608     0.07000
C28         C  0.26943000  0.50327076  0.41884175     0.04100
C29         C  0.26340823  0.49503139  0.45034106    -0.12100
C30         C  0.22912464  0.49337787  0.46434936     0.01600
C31         C  0.19822700  0.49438675  0.44593391    -0.10600
C32         C  0.20448843  0.50417743  0.41421532     0.04100
C33         C  0.24312726  0.51343456  0.40242073    -0.10000
H34         H  0.28456603  0.48906869  0.46373631     0.09700
H35         H  0.16932746  0.48686836  0.45664213     0.07200
H36         H  0.25178230  0.52514324  0.37945706     0.07000
C37         C  0.46080281  0.22531223  0.15026715     0.04100
C38         C  0.46299703  0.22770391  0.11787391    -0.12100
C39         C  0.46404066  0.19696253  0.10034212     0.01600
C40         C  0.46493949  0.16479869  0.11547615    -0.10600
C41         C  0.46267974  0.16195321  0.14789028     0.04100
C42         C  0.45864359  0.19152133  0.16482164    -0.10000
H43         H  0.46413303  0.25343778  0.10638029     0.09700
H44         H  0.46855799  0.14274944  0.10198654     0.07200
H45         H  0.45645054  0.18961502  0.18981025     0.07000
C46         C  0.47698733  0.23620507  0.41766084     0.04100
C47         C  0.48284567  0.20722135  0.40209699    -0.12100
C48         C  0.47967737  0.17332752  0.41733937     0.01600
C49         C  0.47316761  0.17023208  0.44946916    -0.10600
C50         C  0.46991034  0.20062254  0.46585702     0.04100
C51         C  0.47093511  0.23313199  0.44970932    -0.10000
H52         H  0.48894389  0.21067011  0.37753070     0.09700
H53         H  0.47102405  0.14458012  0.46178223     0.07200
H54         H  0.46774436  0.25620967  0.46209456     0.07000
O55         O  0.39017118  0.01120778  0.25256328    -0.87200
C56         C  0.11088449  0.09230952  0.32266836     1.12800
O57         O  0.44061765  0.47567615  0.28332071    -1.35100
O58         O  0.07454636  0.09128941  0.24057009    -0.88700
O59         O  0.35674609  0.44385535  0.24946019    -0.89400
O60         O  0.43419894  0.42790302  0.21852030    -0.78200
O61         O  0.48313086  0.05251948  0.25254932    -1.00300
C62         C  0.05384360  0.47055876  0.22492102     1.22800
O63         O  0.47969577  0.43002089  0.28326239    -1.35200
Mn64       Mn  0.48476997  0.47605743  0.31645692     1.82100
O65         O  0.02086383  0.46950324  0.21664343    -0.77300
O66         O  0.10940246  0.05857172  0.24725529    -0.86700
C67         C  0.05867984  0.47288509  0.33839404     1.13900
C68         C  0.10347216  0.08451023  0.23342634     1.08700
O69         O  0.44229098  0.43635183  0.34904802    -0.78200
O70         O  0.02649555  0.01493518  0.28120685    -1.31900
O71         O  0.40036118  0.39665123  0.31412143    -0.97400
C72         C  0.47256847  0.34911415  0.23849404     1.07400
Mn73       Mn  0.08303576  0.01487768  0.28157538     1.48600
O74         O  0.43971631  0.34527357  0.25015138    -0.86600
Mn75       Mn  0.38099933  0.42311578  0.28433326     1.49600
O76         O  0.40107287  0.01540894  0.32179355    -0.90500
C77         C  0.47909968  0.04488975  0.22496796     1.20600
C78         C  0.37137087  0.48223039  0.33110370     1.12600
Mn79       Mn  0.47987706  0.47163795  0.24888079     1.81000
O80         O  0.06058066  0.47028098  0.31049412    -0.95700
Mn81       Mn  0.44063927  0.03157051  0.28403069     1.49300
C82         C  0.36136896  0.47783991  0.24109165     1.09100
Mn83       Mn  0.03264301  0.42345363  0.28207066     1.49900
C84         C  0.47847995  0.35260942  0.32848129     1.12000
O85         O  0.39694661  0.39320699  0.25537048    -1.01500
O86         O  0.11060505  0.05967561  0.31603790    -0.91100
C87         C  0.40217703  0.39699449  0.22746814     1.23300
O88         O  0.05940957  0.46874603  0.25261872    -1.01900
O89         O  0.08524317  0.10092963  0.30985941    -0.89300
O90         O  0.01269104  0.37932458  0.31721338    -0.88900
O91         O  0.36136145  0.44822428  0.31867658    -0.88900
Mn92       Mn  0.03402706  0.07372280  0.27832834     1.47900
O93         O  0.02861700  0.47553910  0.34790357    -0.77400
C94         C  0.40906616  0.40440276  0.34171815     1.16400
O95         O  0.47780437  0.01262249  0.21648255    -0.76100
O96         O  0.49094594  0.02336161  0.34742739    -0.75700
Mn97       Mn  0.42311171  0.37335763  0.28475051     1.51100
O98         O  0.00823549  0.37721777  0.24777128    -0.88100
O99         O  0.49156350  0.05828475  0.30968672    -0.95600
O100        O  0.44424607  0.34908285  0.31924702    -0.90600
C101        C  0.49344761  0.05561803  0.33757562     1.14200
C102        C  0.49220924  0.08710759  0.35815501    -0.04400
C103        C  0.51491390  0.10049630  0.38660574    -0.01500
C104        C  0.51126733  0.12874504  0.40607085     0.03500
C105        C  0.48231033  0.14131527  0.39860765    -0.04400
C106        C  0.45873311  0.12670807  0.37073947    -0.01500
C107        C  0.46700917  0.10382080  0.34938171     0.03500
C108        C  0.04508989  0.08857649  0.39455167     0.38100
C109        C  0.42518175  0.13468933  0.36394273     0.38100
C110        C  0.45128108  0.10031184  0.31785604     0.36500
C111        C  0.03880019  0.14633186  0.43289146     0.36500
N112        N  0.43915355  0.09877636  0.29274299    -0.38300
N113        N  0.06091640  0.16061754  0.45419267    -0.38300
N114        N  0.39834648  0.14084824  0.35853675    -0.37700
N115        N  0.07030747  0.08058041  0.40110016    -0.37700
C116        C  0.47754874  0.26950287  0.39924404    -0.04400
C117        C  0.01510976  0.29970831  0.38727698    -0.01500
C118        C  0.01550474  0.32562146  0.36380141     0.03500
C119        C  0.47814212  0.32391432  0.35319543    -0.04400
C120        C  0.44014617  0.29298469  0.36580055    -0.01500
C121        C  0.44016683  0.26644338  0.38868864     0.03500
C122        C  0.05367730  0.30286063  0.39838750     0.38100
C123        C  0.40021626  0.28536859  0.35383935     0.38100
C124        C  0.40129130  0.23441737  0.40047366     0.36500
C125        C  0.05439746  0.34994433  0.34861672     0.36500
N126        N  0.37036031  0.20898114  0.40996441    -0.38300
N127        N  0.08616738  0.36701126  0.33695033    -0.38300
N128        N  0.36814523  0.27860174  0.34427441    -0.37700
N129        N  0.08431178  0.30528938  0.40726083    -0.37700
C130        C  0.46907749  0.13113883  0.16494340    -0.04400
C131        C  0.44516711  0.08889553  0.15819501    -0.01500
C132        C  0.45001320  0.06066746  0.17659982     0.03500
C133        C  0.47678290  0.07417505  0.20311925    -0.04400
C134        C  0.00052914  0.11654031  0.20962033    -0.01500
C135        C  0.99880920  0.14450656  0.18946114     0.03500
C136        C  0.41439015  0.07411119  0.13318327     0.38100
C137        C  0.02638999  0.13241079  0.23748995     0.38100
C138        C  0.02881708  0.18743752  0.19372936     0.36500
C139        C  0.42515317  0.01757046  0.16946683     0.36500
N140        N  0.05293960  0.22151549  0.19724746    -0.38300
N141        N  0.40522678  0.98318196  0.16383884    -0.38300
N142        N  0.04666288  0.14610286  0.25974522    -0.37700
N143        N  0.38983696  0.06209926  0.11320012    -0.37700
C144        C  0.46337112  0.25915908  0.16974258    -0.04400
C145        C  0.00221450  0.29261288  0.17828197    -0.01500
C146        C  0.00527808  0.32258725  0.19949442     0.03500
C147        C  0.46914912  0.31895107  0.21352413    -0.04400
C148        C  0.42984670  0.28538621  0.20373381    -0.01500
C149        C  0.42730816  0.25636667  0.18176150     0.03500
C150        C  0.03946566  0.29581474  0.16552806     0.38100
C151        C  0.39135325  0.27934849  0.21622097     0.38100
C152        C  0.38733371  0.22318537  0.17121185     0.36500
C153        C  0.04625199  0.35681626  0.20654326     0.36500
N154        N  0.35581296  0.19672048  0.16225810    -0.38300
N155        N  0.07909633  0.38391975  0.21196846    -0.38300
N156        N  0.36033735  0.27397315  0.22597556    -0.37700
N157        N  0.06925090  0.29848096  0.15546789    -0.37700
C158        C  0.46798786  0.19978686  0.50031293    -0.04400
C159        C  0.50450309  0.22334132  0.01837303    -0.01500
C160        C  0.50306250  0.22328464  0.05103230     0.03500
C161        C  0.46528510  0.19874635  0.06591259    -0.04400
C162        C  0.42881922  0.17479830  0.04789281    -0.01500
C163        C  0.43008235  0.17562624  0.01519290     0.03500
C164        C  0.54383444  0.24682115  0.50326024     0.38100
C165        C  0.39000687  0.14928132  0.06311466     0.38100
C166        C  0.39240597  0.15170926  0.99684087     0.36500
C167        C  0.54057840  0.24811091  0.06936448     0.36500
N168        N  0.36229876  0.13268279  0.48221385    -0.38300
N169        N  0.07052379  0.26804549  0.08394623    -0.38300
N170        N  0.35919849  0.12887480  0.07541789    -0.37700
N171        N  0.57516291  0.26524456  0.49109682    -0.37700
C172        C  0.29654126  0.49297408  0.40082322    -0.04400
C173        C  0.33987296  0.51297914  0.40535382    -0.01500
C174        C  0.36398425  0.50536725  0.38442630     0.03500
C175        C  0.34568758  0.48314764  0.35662040    -0.04400
C176        C  0.30204739  0.46150028  0.35338609    -0.01500
C177        C  0.27797222  0.46286244  0.37735649     0.03500
C178        C  0.35946899  0.54035587  0.43159786     0.38100
C179        C  0.28148357  0.44047421  0.32473212     0.38100
C180        C  0.23444865  0.43214270  0.37876826     0.36500
C181        C  0.40557006  0.51551532  0.39352216     0.36500
N182        N  0.19989788  0.40736786  0.38020325    -0.38300
N183        N  0.43764355  0.02152131  0.40231849    -0.38300
N184        N  0.26448309  0.42425451  0.30183766    -0.37700
N185        N  0.37529449  0.06207226  0.45262547    -0.39500
C186        C  0.09403687  0.47798319  0.35887629    -0.04400
C187        C  0.10084281  0.49517486  0.38903609    -0.01500
C188        C  0.13913664  0.50870660  0.40497875     0.03500
C189        C  0.16919107  0.49988012  0.39332057    -0.04400
C190        C  0.16198561  0.48232374  0.36291203    -0.01500
C191        C  0.12461653  0.47066838  0.34645264     0.03500
C192        C  0.06779663  0.49692689  0.40478085     0.38100
C193        C  0.19339554  0.47893509  0.34606554     0.38100
C194        C  0.11777178  0.44999000  0.31657961     0.36500
C195        C  0.14879490  0.53501441  0.43203131     0.36500
N196        N  0.11263154  0.43335049  0.29297302    -0.38300
N197        N  0.15654336  0.55629432  0.45341664    -0.38300
N198        N  0.21746461  0.47723353  0.33054274    -0.37700
N199        N  0.04099144  0.49703660  0.41776768    -0.37700
C200        C  0.33202480  0.47829565  0.21656747    -0.04400
C201        C  0.33926740  0.51497930  0.20236146    -0.01500
C202        C  0.31290653  0.51403808  0.17797931     0.03500
C203        C  0.27888247  0.47689042  0.16750806    -0.04400
C204        C  0.27084691  0.44072744  0.18181556    -0.01500
C205        C  0.29563517  0.44161510  0.20716490     0.03500
C206        C  0.37118723  0.05434625  0.21420493     0.38100
C207        C  0.23545822  0.40250965  0.17128024     0.38100
C208        C  0.27915924  0.40592425  0.22618789     0.36500
C209        C  0.31935038  0.05170751  0.16472362     0.36500
N210        N  0.26403634  0.37764508  0.24163078    -0.38300
N211        N  0.32437310  0.08167629  0.15418472    -0.38300
N212        N  0.20731148  0.37209680  0.16281539    -0.37700
N213        N  0.39597989  0.08603515  0.22367340    -0.37700
C214        C  0.15060428  0.48442905  0.16273886    -0.04400
C215        C  0.10901015  0.46703816  0.15182489    -0.01500
C216        C  0.07902290  0.46832634  0.17066435     0.03500
C217        C  0.08748926  0.47778227  0.20272486    -0.04400
C218        C  0.12951394  0.49557196  0.21328410    -0.01500
C219        C  0.16088302  0.50323834  0.19236598     0.03500
C220        C  0.09609563  0.44630971  0.12199553     0.38100
C221        C  0.14220663  0.00758471  0.24529138     0.38100
C222        C  0.20389850  0.03134344  0.20135228     0.36500
C223        C  0.04139003  0.46323298  0.15617027     0.36500
N224        N  0.23801018  0.05381155  0.20858185    -0.38300
N225        N  0.51255096  0.46120374  0.14391067    -0.38300
N226        N  0.15412701  0.01831103  0.27040999    -0.37700
N227        N  0.08551980  0.42945873  0.09828734    -0.37700
C228        C  0.22597531  0.49136749  0.49848305    -0.04400
C229        C  0.21376426  0.45462124  0.01383548    -0.01500
C230        C  0.21226863  0.45358115  0.04642453     0.03500
C231        C  0.22298725  0.48928811  0.06374866    -0.04400
C232        C  0.23443923  0.02584685  0.04831317    -0.01500
C233        C  0.23642146  0.02697910  0.01576317     0.03500
C234        C  0.20248933  0.41796674  0.49604226     0.38100
C235        C  0.24423943  0.06226948  0.06592304     0.38100
C236        C  0.25018318  0.06504507  0.99999179     0.36500
C237        C  0.19863066  0.41552442  0.06215726     0.36500
N238        N  0.26127591  0.09534754  0.48728685    -0.38300
N239        N  0.18764007  0.38521735  0.07479303    -0.38300
N240        N  0.25170269  0.09123697  0.07995221    -0.37700
N241        N  0.19347491  0.38872056  0.48181755    -0.37700
C242        C  0.32723029  0.31099005  0.40445525    -0.04400
C243        C  0.37067710  0.32953828  0.40881433    -0.01500
C244        C  0.39762287  0.36270065  0.39018893     0.03500
C245        C  0.38127969  0.37536947  0.36551452    -0.04400
C246        C  0.33763569  0.35758257  0.36262386    -0.01500
C247        C  0.31140740  0.32828526  0.38355710     0.03500
C248        C  0.38769689  0.31359974  0.43146733     0.38100
C249        C  0.31796197  0.36703388  0.33762105     0.38100
C250        C  0.26769505  0.31609322  0.38369873     0.36500
C251        C  0.44206960  0.38155125  0.39509551     0.36500
N252        N  0.23313755  0.30714270  0.38381619    -0.38300
N253        N  0.47751778  0.39654174  0.39917644    -0.38300
N254        N  0.29885324  0.37169869  0.31843780    -0.37700
N255        N  0.40125546  0.30093723  0.44964098    -0.37700
C256        C  0.14271160  0.12130915  0.34634039    -0.04400
C257        C  0.13941181  0.15379880  0.35988437    -0.01500
C258        C  0.16796899  0.17903915  0.38325374     0.03500
C259        C  0.20175187  0.17426560  0.39218272    -0.04400
C260        C  0.20578628  0.14272174  0.37892082    -0.01500
C261        C  0.17714413  0.11686206  0.35587232     0.03500
C262        C  0.10775909  0.16287862  0.34951315     0.38100
C263        C  0.23970032  0.13684511  0.38917947     0.38100
C264        C  0.18592767  0.08801981  0.34073812     0.36500
C265        C  0.16215123  0.20975201  0.39862578     0.36500
N266        N  0.19427936  0.06590158  0.32876651    -0.38300
N267        N  0.15687554  0.23371118  0.41108552    -0.38300
N268        N  0.26646507  0.13187260  0.39749776    -0.37700
N269        N  0.08304716  0.17083884  0.34121132    -0.37700
C270        C  0.37167120  0.36528350  0.20500035    -0.04400
C271        C  0.38470979  0.35485664  0.17753780    -0.01500
C272        C  0.35547747  0.32351403  0.15743947     0.03500
C273        C  0.31244520  0.30514395  0.16289948    -0.04400
C274        C  0.29977087  0.31854105  0.18879447    -0.01500
C275        C  0.32903051  0.34342950  0.21152875     0.03500
C276        C  0.42839293  0.37105477  0.17252128     0.38100
C277        C  0.25633187  0.30561796  0.19285403     0.38100
C278        C  0.31541046  0.33835168  0.24300836     0.36500
C279        C  0.37019356  0.30846093  0.13264452     0.36500
N280        N  0.30372665  0.33101506  0.26799751    -0.38300
N281        N  0.38216167  0.29651444  0.11299217    -0.38300
N282        N  0.22170785  0.29532778  0.19594186    -0.37700
N283        N  0.46302735  0.38233226  0.16862660    -0.37700
C284        C  0.19220406  0.16308415  0.16614479    -0.04400
C285        C  0.20545812  0.15123860  0.19302312    -0.01500
C286        C  0.17656811  0.12595723  0.21486491     0.03500
C287        C  0.13350203  0.10931806  0.20916164    -0.04400
C288        C  0.12004819  0.11713138  0.18057153    -0.01500
C289        C  0.14907154  0.14497272  0.15969692     0.03500
C290        C  0.24915306  0.16551830  0.19870118     0.38100
C291        C  0.07661356  0.09473573  0.17151310     0.38100
C292        C  0.13408987  0.15578141  0.13219731     0.36500
C293        C  0.19189328  0.11903878  0.24397024     0.36500
N294        N  0.12188946  0.16413059  0.11025473    -0.38300
N295        N  0.20474433  0.11408005  0.26708136    -0.38300
N296        N  0.04241233  0.07636325  0.16304442    -0.37700
N297        N  0.28391565  0.17709611  0.20367239    -0.37700
C298        C  0.25217884  0.22629070  0.06344107    -0.04400
C299        C  0.27844307  0.21498761  0.04871518    -0.01500
C300        C  0.28191943  0.21713743  0.01624835     0.03500
C301        C  0.25846740  0.22978301  0.49843672    -0.04400
C302        C  0.23159097  0.24028341  0.01312295    -0.01500
C303        C  0.22850641  0.23861240  0.04559243     0.03500
C304        C  0.30224191  0.20168554  0.06707277     0.38100
C305        C  0.20812257  0.25408887  0.49486856     0.38100
C306        C  0.20152208  0.25023115  0.06074708     0.36500
C307        C  0.31027998  0.20730106  0.00115964     0.36500
N308        N  0.18003085  0.25952316  0.07285692    -0.38300
N309        N  0.33308263  0.19981683  0.48901306    -0.38300
N310        N  0.18956640  0.26530118  0.48034623    -0.37700
N311        N  0.32109645  0.19099405  0.08179527    -0.37700
C312        C  0.22342103  0.19727295  0.64703761     0.04100
C313        C  0.25262410  0.23362671  0.66200080    -0.12100
C314        C  0.28115616  0.26761844  0.64544550     0.01600
C315        C  0.27981779  0.26494146  0.61303594    -0.10600
C316        C  0.25197929  0.22842091  0.59766152     0.04100
C317        C  0.22409301  0.19457013  0.61460142    -0.10000
H318        H  0.25303668  0.23548811  0.68702432     0.09700
H319        H  0.30052686  0.29107678  0.59966364     0.07200
H320        H  0.20292141  0.16646834  0.60249255     0.07000
C321        C  0.23518439  0.20497823  0.91299495     0.04100
C322        C  0.23264683  0.20145016  0.94520099    -0.12100
C323        C  0.26252021  0.23270228  0.96440550     0.01600
C324        C  0.29458524  0.26797655  0.95138360    -0.10600
C325        C  0.29749451  0.27177112  0.91912890     0.04100
C326        C  0.26826333  0.23943476  0.90015720    -0.10000
H327        H  0.20702837  0.17497227  0.95529916     0.09700
H328        H  0.31608674  0.29292489  0.96635726     0.07200
H329        H  0.26987770  0.24212880  0.87518452     0.07000
C330        C  0.24635355  0.47704612  0.64723265     0.04100
C331        C  0.21116699  0.47324941  0.66120365    -0.12100
C332        C  0.18343006  0.48172371  0.64501107     0.01600
C333        C  0.18900251  0.48928493  0.61313293    -0.10600
C334        C  0.22129554  0.48781978  0.59801587     0.04100
C335        C  0.25101009  0.48339417  0.61534569    -0.10000
H336        H  0.20687771  0.46604490  0.68557595     0.09700
H337        H  0.16851273  0.49623342  0.59989261     0.07200
H338        H  0.27732425  0.48464638  0.60407214     0.07000
C339        C  0.26942497  0.50324849  0.91884669     0.04100
C340        C  0.26340149  0.49500672  0.95034555    -0.12100
C341        C  0.22911524  0.49334880  0.96435268     0.01600
C342        C  0.19821791  0.49435750  0.94593692    -0.10600
C343        C  0.20448121  0.50415126  0.91421910     0.04100
C344        C  0.24312062  0.51340969  0.90242488    -0.10000
H345        H  0.28456013  0.48904575  0.96374128     0.09700
H346        H  0.16931756  0.48683802  0.95664436     0.07200
H347        H  0.25177499  0.52511787  0.87946089     0.07000
C348        C  0.46080483  0.22531386  0.65026608     0.04100
C349        C  0.46299942  0.22770505  0.61787277    -0.12100
C350        C  0.46404165  0.19696253  0.60034141     0.01600
C351        C  0.46493798  0.16479774  0.61547581    -0.10600
C352        C  0.46267842  0.16195311  0.64788991     0.04100
C353        C  0.45864429  0.19152261  0.66482098    -0.10000
H354        H  0.46413726  0.25343951  0.60637885     0.09700
H355        H  0.46855547  0.14274753  0.60198659     0.07200
H356        H  0.45645225  0.18961714  0.68980968     0.07000
C357        C  0.47697811  0.23620160  0.91765987     0.04100
C358        C  0.48283544  0.20721653  0.90209721    -0.12100
C359        C  0.47966408  0.17332191  0.91734021     0.01600
C360        C  0.47315178  0.17022662  0.94946971    -0.10600
C361        C  0.46989610  0.20061860  0.96585681     0.04100
C362        C  0.47092381  0.23312893  0.94970819    -0.10000
H363        H  0.48893620  0.21066545  0.87753132     0.09700
H364        H  0.47100663  0.14457442  0.96178334     0.07200
H365        H  0.46773458  0.25620799  0.96209273     0.07000
O366        O  0.39017742  0.01121394  0.75256596    -0.87200
C367        C  0.11088806  0.09231050  0.82267285     1.12800
O368        O  0.44062355  0.47568043  0.78332089    -1.35100
O369        O  0.07455254  0.09129583  0.74057491    -0.88700
O370        O  0.35675316  0.44386243  0.74945837    -0.89400
O371        O  0.43420712  0.42790978  0.71851882    -0.78200
O372        O  0.48313607  0.05252572  0.75255167    -1.00300
C373        C  0.05385124  0.47056475  0.72492135     1.22800
O374        O  0.47970146  0.43002481  0.78326159    -1.35200
Mn375      Mn  0.48477489  0.47606027  0.81645734     1.82100
O376        O  0.02087246  0.46951121  0.71664339    -0.77300
O377        O  0.10940816  0.05857695  0.74725746    -0.86700
C378        C  0.05868340  0.47288545  0.83839471     1.13900
C379        C  0.10347795  0.08451658  0.73342991     1.08700
O380        O  0.44229531  0.43635305  0.84904713    -0.78200
O381        O  0.02650101  0.01493959  0.78120887    -1.31900
O382        O  0.40036628  0.39665409  0.81411932    -0.97400
C383        C  0.47257350  0.34911807  0.73849205     1.07400
Mn384      Mn  0.08304080  0.01488126  0.78157693     1.48600
O385        O  0.43972143  0.34527885  0.75014822    -0.86600
Mn386      Mn  0.38100519  0.42312019  0.78433150     1.49600
O387        O  0.40107734  0.01540959  0.82179681    -0.90500
C388        C  0.47910458  0.04489548  0.72497017     1.20600
C389        C  0.37137551  0.48223020  0.83110542     1.12600
Mn390      Mn  0.47988407  0.47164358  0.74888089     1.81000
O391        O  0.06058529  0.47028305  0.81049464    -0.95700
Mn392      Mn  0.44064435  0.03157435  0.78403342     1.49300
C393        C  0.36137683  0.47784816  0.74109171     1.09100
Mn394      Mn  0.03264775  0.42345663  0.78206993     1.49900
C395        C  0.47848207  0.35260941  0.82847806     1.12000
O396        O  0.39695382  0.39321338  0.75536830    -1.01500
O397        O  0.11060851  0.05967715  0.81604037    -0.91100
C398        C  0.40218474  0.39700132  0.72746612     1.23300
O399        O  0.05941540  0.46875044  0.75261913    -1.01900
O400        O  0.08524753  0.10093235  0.80986472    -0.89300
O401        O  0.01269398  0.37932568  0.81721146    -0.88900
O402        O  0.36136624  0.44822561  0.81867567    -0.88900
Mn403      Mn  0.03403226  0.07372744  0.77833247     1.47900
O404        O  0.02862110  0.47554045  0.84790421    -0.77400
C405        C  0.40907109  0.40440393  0.84171630     1.16400
O406        O  0.47781124  0.01262921  0.71648445    -0.76100
O407        O  0.49094938  0.02336312  0.84742960    -0.75700
Mn408      Mn  0.42311688  0.37336172  0.78474772     1.51100
O409        O  0.00824020  0.37722124  0.74776957    -0.88100
O410        O  0.49156791  0.05828717  0.80968959    -0.95600
O411        O  0.44424905  0.34908394  0.81924295    -0.90600
C412        C  0.49345065  0.05561968  0.83757846     1.14200
C413        C  0.49220774  0.08710709  0.85815792    -0.04400
C414        C  0.51490778  0.10049441  0.88661064    -0.01500
C415        C  0.51125632  0.12874048  0.90607554     0.03500
C416        C  0.48229969  0.14131028  0.89860956    -0.04400
C417        C  0.45872740  0.12670497  0.87073913    -0.01500
C418        C  0.46700796  0.10381990  0.84938235     0.03500
C419        C  0.04508450  0.08857594  0.89455984     0.38100
C420        C  0.42517751  0.13468719  0.86393841     0.38100
C421        C  0.45128565  0.10031381  0.81785518     0.36500
C422        C  0.03878505  0.14632546  0.93289964     0.36500
N423        N  0.43916300  0.09878095  0.79274094    -0.38300
N424        N  0.06089719  0.16060975  0.95420310    -0.38300
N425        N  0.39834375  0.14084722  0.85852900    -0.37700
N426        N  0.07030309  0.08058202  0.90111031    -0.37700
C427        C  0.47754302  0.26950019  0.89924174    -0.04400
C428        C  0.01510709  0.29970154  0.88727016    -0.01500
C429        C  0.01550307  0.32561334  0.86379303     0.03500
C430        C  0.47814146  0.32391181  0.85319108    -0.04400
C431        C  0.44014432  0.29298399  0.86579597    -0.01500
C432        C  0.44016252  0.26644312  0.88868544     0.03500
C433        C  0.05367339  0.30284843  0.89837740     0.38100
C434        C  0.40021554  0.28536808  0.85383225     0.38100
C435        C  0.40128565  0.23441944  0.90047053     0.36500
C436        C  0.05439274  0.34992575  0.84860158     0.36500
N437        N  0.37035347  0.20898517  0.90996123    -0.38300
N438        N  0.08615883  0.36698397  0.83692883    -0.38300
N439        N  0.36814545  0.27860112  0.84426503    -0.37700
N440        N  0.08430687  0.30527262  0.90724799    -0.37700
C441        C  0.46907685  0.13113959  0.66494347    -0.04400
C442        C  0.44516516  0.08889589  0.65819735    -0.01500
C443        C  0.45001278  0.06066921  0.67660283     0.03500
C444        C  0.47678485  0.07417887  0.70312109    -0.04400
C445        C  0.00053215  0.11654511  0.70962041    -0.01500
C446        C  0.99881099  0.14450945  0.68945984     0.03500
C447        C  0.41438649  0.07411012  0.63318673     0.38100
C448        C  0.02639626  0.13241795  0.73748822     0.38100
C449        C  0.02882182  0.18744029  0.69372331     0.36500
C450        C  0.42515296  0.01757180  0.66947129     0.36500
N451        N  0.05294715  0.22151820  0.69723697    -0.38300
N452        N  0.40522692  0.98318303  0.66384425    -0.38300
N453        N  0.04667179  0.14611197  0.75974207    -0.37700
N454        N  0.38983202  0.06209716  0.61320446    -0.37700
C455        C  0.46337388  0.25916134  0.66974123    -0.04400
C456        C  0.00221617  0.29261564  0.67827894    -0.01500
C457        C  0.00528056  0.32259099  0.69949078     0.03500
C458        C  0.46915334  0.31895429  0.71352249    -0.04400
C459        C  0.42985062  0.28538861  0.70373354    -0.01500
C460        C  0.42731136  0.25636879  0.68176121     0.03500
C461        C  0.03946683  0.29581700  0.66552459     0.38100
C462        C  0.39135761  0.27935028  0.71622215     0.38100
C463        C  0.38733669  0.22318714  0.67121241     0.36500
C464        C  0.04625433  0.35682122  0.70653762     0.36500
N465        N  0.35581596  0.19672180  0.66225903    -0.38300
N466        N  0.07909852  0.38392578  0.71196131    -0.38300
N467        N  0.36034206  0.27397442  0.72597787    -0.37700
N468        N  0.06925178  0.29848286  0.65546420    -0.37700
C469        C  0.46797629  0.19978523  0.00031303    -0.04400
C470        C  0.50451471  0.22333445  0.51837483    -0.01500
C471        C  0.50307061  0.22327842  0.55103389     0.03500
C472        C  0.46528971  0.19874717  0.56591204    -0.04400
C473        C  0.42882414  0.17480546  0.54789030    -0.01500
C474        C  0.43009056  0.17563505  0.51519056     0.03500
C475        C  0.54381959  0.24683746  0.00325616     0.38100
C476        C  0.39000906  0.14929210  0.56310989     0.38100
C477        C  0.39241435  0.15172646  0.49683633     0.36500
C478        C  0.54058622  0.24809840  0.56936811     0.36500
N479        N  0.36229017  0.13265893  0.98222017    -0.38300
N480        N  0.07052931  0.26802820  0.58395091    -0.38300
N481        N  0.35919851  0.12888787  0.57541127    -0.37700
N482        N  0.57514536  0.26526873  0.99109070    -0.37700
C483        C  0.29654000  0.49295635  0.90082891    -0.04400
C484        C  0.33987194  0.51296636  0.90535919    -0.01500
C485        C  0.36398605  0.50536039  0.88443024     0.03500
C486        C  0.34569111  0.48314300  0.85662316    -0.04400
C487        C  0.30205075  0.46149023  0.85338964    -0.01500
C488        C  0.27797418  0.46284523  0.87736180     0.03500
C489        C  0.35946529  0.54034167  0.93160433     0.38100
C490        C  0.28148770  0.44046652  0.82473476     0.38100
C491        C  0.23445280  0.43211964  0.87877479     0.36500
C492        C  0.40557249  0.51551064  0.89352604     0.36500
N493        N  0.19990385  0.40734038  0.88021108    -0.38300
N494        N  0.43764590  0.02151616  0.90232238    -0.38300
N495        N  0.26448816  0.42424871  0.80183953    -0.37700
N496        N  0.37529003  0.06205704  0.95263269    -0.39500
C497        C  0.09403755  0.47797767  0.85887772    -0.04400
C498        C  0.10084437  0.49516799  0.88903816    -0.01500
C499        C  0.13913560  0.50869124  0.90498259     0.03500
C500        C  0.16918581  0.49985859  0.89332465    -0.04400
C501        C  0.16197901  0.48230271  0.86291599    -0.01500
C502        C  0.12461295  0.47065581  0.84645499     0.03500
C503        C  0.06780118  0.49692677  0.90478185     0.38100
C504        C  0.19338445  0.47890354  0.84607196     0.38100
C505        C  0.11776678  0.44997907  0.81658109     0.36500
C506        C  0.14879552  0.53499531  0.93203777     0.36500
N507        N  0.11262586  0.43334196  0.79297330    -0.38300
N508        N  0.15654547  0.55627191  0.95342540    -0.38300
N509        N  0.21745007  0.47719389  0.83055044    -0.37700
N510        N  0.04099806  0.49704122  0.91776816    -0.37700
C511        C  0.33203666  0.47830836  0.71656584    -0.04400
C512        C  0.33927991  0.51499541  0.70236513    -0.01500
C513        C  0.31292218  0.51405934  0.67798248     0.03500
C514        C  0.27890255  0.47691334  0.66750367    -0.04400
C515        C  0.27086839  0.44074664  0.68180411    -0.01500
C516        C  0.29565100  0.44162906  0.70715569     0.03500
C517        C  0.37119678  0.05435944  0.71421380     0.38100
C518        C  0.23548635  0.40253001  0.67125925     0.38100
C519        C  0.27917158  0.40593380  0.72617389     0.36500
C520        C  0.31936370  0.05173079  0.66473374     0.36500
N521        N  0.26404609  0.37765182  0.74161375    -0.38300
N522        N  0.32438529  0.08170211  0.65420062    -0.38300
N523        N  0.20734524  0.37211803  0.66278635    -0.37700
N524        N  0.39598799  0.08604679  0.72368591    -0.37700
C525        C  0.15061956  0.48444535  0.66274077    -0.04400
C526        C  0.10902575  0.46705348  0.65182556    -0.01500
C527        C  0.07903537  0.46833623  0.67066502     0.03500
C528        C  0.08749884  0.47778948  0.70272612    -0.04400
C529        C  0.12952280  0.49557835  0.71328715    -0.01500
C530        C  0.16089453  0.50324858  0.69237021     0.03500
C531        C  0.09611481  0.44632946  0.62199437     0.38100
C532        C  0.14221209  0.00758675  0.74529565     0.38100
C533        C  0.20390891  0.03135136  0.70136040     0.36500
C534        C  0.04140110  0.46323865  0.65617044     0.36500
N535        N  0.23801976  0.05381781  0.70859320    -0.38300
N536        N  0.51256024  0.46120395  0.64391018    -0.38300
N537        N  0.15412925  0.01830897  0.77041540    -0.37700
N538        N  0.08554213  0.42948217  0.59828464    -0.37700
C539        C  0.22596471  0.49133827  0.99848596    -0.04400
C540        C  0.21378456  0.45465256  0.51383296    -0.01500
C541        C  0.21229233  0.45361293  0.54642225     0.03500
C542        C  0.22300411  0.48931814  0.56374663    -0.04400
C543        C  0.23444531  0.02587282  0.54831037    -0.01500
C544        C  0.23642442  0.02700434  0.51576003     0.03500
C545        C  0.20246299  0.41793402  0.99604473     0.38100
C546        C  0.24423983  0.06229406  0.56591981     0.38100
C547        C  0.25017762  0.06506852  0.49998803     0.36500
C548        C  0.19866465  0.41555793  0.56215494     0.36500
N549        N  0.26128833  0.09532575  0.98729144    -0.38300
N550        N  0.18768242  0.38525212  0.57479055    -0.38300
N551        N  0.25169851  0.09126045  0.57994864    -0.37700
N552        N  0.19344364  0.38868658  0.98182014    -0.37700
C553        C  0.32723854  0.31098612  0.90445196    -0.04400
C554        C  0.37068562  0.32953728  0.90881145    -0.01500
C555        C  0.39763005  0.36270000  0.89018583     0.03500
C556        C  0.38128562  0.37536818  0.86551189    -0.04400
C557        C  0.33764152  0.35757873  0.86262082    -0.01500
C558        C  0.31141380  0.32827885  0.88355281     0.03500
C559        C  0.38770735  0.31360162  0.93146535     0.38100
C560        C  0.31796768  0.36703131  0.83761896     0.38100
C561        C  0.26770015  0.31608208  0.88369216     0.36500
C562        C  0.44207695  0.38155170  0.89509176     0.36500
N563        N  0.23314144  0.30712749  0.88380727    -0.38300
N564        N  0.47752529  0.39654281  0.89917211    -0.38300
N565        N  0.29885941  0.37169730  0.81843608    -0.37700
N566        N  0.40126742  0.30094162  0.94963988    -0.37700
C567        C  0.14271513  0.12130732  0.84634600    -0.04400
C568        C  0.13941589  0.15379579  0.85989285    -0.01500
C569        C  0.16797509  0.17903516  0.88326160     0.03500
C570        C  0.20175895  0.17426146  0.89218724    -0.04400
C571        C  0.20579142  0.14271737  0.87892378    -0.01500
C572        C  0.17714745  0.11685866  0.85587593     0.03500
C573        C  0.10776162  0.16287538  0.84952532     0.38100
C574        C  0.23970559  0.13683962  0.88918002     0.38100
C575        C  0.18592848  0.08801498  0.84074106     0.36500
C576        C  0.16215858  0.20974726  0.89863622     0.36500
N577        N  0.19427798  0.06589502  0.82876962    -0.38300
N578        N  0.15688362  0.23370582  0.91109773    -0.38300
N579        N  0.26647040  0.13186604  0.89749625    -0.37700
N580        N  0.08304860  0.17083571  0.84122659    -0.37700
C581        C  0.37167917  0.36529043  0.70499827    -0.04400
C582        C  0.38471782  0.35486180  0.67753658    -0.01500
C583        C  0.35548521  0.32351843  0.65743883     0.03500
C584        C  0.31245309  0.30515012  0.66289826    -0.04400
C585        C  0.29977890  0.31854882  0.68879227    -0.01500
C586        C  0.32903844  0.34343713  0.71152647     0.03500
C587        C  0.42840090  0.37105860  0.67252087     0.38100
C588        C  0.25633979  0.30562548  0.69285177     0.38100
C589        C  0.31541817  0.33835774  0.74300602     0.36500
C590        C  0.37020040  0.30846198  0.63264562     0.36500
N591        N  0.30373343  0.33101909  0.76799477    -0.38300
N592        N  0.38216775  0.29651234  0.61299496    -0.38300
N593        N  0.22171563  0.29533466  0.69593954    -0.37700
N594        N  0.46303533  0.38233519  0.66862703    -0.37700
C595        C  0.19220802  0.16309416  0.66614842    -0.04400
C596        C  0.20546263  0.15124529  0.69302476    -0.01500
C597        C  0.17657338  0.12596358  0.71486694     0.03500
C598        C  0.13350723  0.10932590  0.70916525    -0.04400
C599        C  0.12005269  0.11714347  0.68057710    -0.01500
C600        C  0.14907537  0.14498724  0.65970346     0.03500
C601        C  0.24915727  0.16552195  0.69870057     0.38100
C602        C  0.07661810  0.09474883  0.67151879     0.38100
C603        C  0.13409304  0.15580452  0.63220863     0.36500
C604        C  0.19189937  0.11904323  0.74397119     0.36500
N605        N  0.12189233  0.16416154  0.61027027    -0.38300
N606        N  0.20475075  0.11408310  0.76708162    -0.38300
N607        N  0.04241717  0.07637712  0.66304936    -0.37700
N608        N  0.28391966  0.17709719  0.70367014    -0.37700
C609        C  0.25217207  0.22629664  0.56344120    -0.04400
C610        C  0.27843032  0.21498792  0.54871274    -0.01500
C611        C  0.28190071  0.21713388  0.51624548     0.03500
C612        C  0.25848479  0.22978316  0.99843749    -0.04400
C613        C  0.23157841  0.24028774  0.51312451    -0.01500
C614        C  0.22849946  0.23862016  0.54559455     0.03500
C615        C  0.30223049  0.20168542  0.56706815     0.38100
C616        C  0.20813692  0.25408505  0.99486541     0.38100
C617        C  0.20152129  0.25024477  0.56075173     0.36500
C618        C  0.31025345  0.20728937  0.50115378     0.36500
N619        N  0.18003514  0.25954164  0.57286366    -0.38300
N620        N  0.33311605  0.19983555  0.98902187    -0.38300
N621        N  0.18958272  0.26529872  0.98034214    -0.37700
N622        N  0.32108677  0.19099429  0.58178888    -0.37700
C623        C  0.22341682  0.69726308  0.14703646     0.04100
C624        C  0.25261539  0.73361872  0.16200023    -0.12100
C625        C  0.28114855  0.76761097  0.14544582     0.01600
C626        C  0.27981412  0.76493284  0.11303635    -0.10600
C627        C  0.25198133  0.72841050  0.09766159     0.04100
C628        C  0.22409478  0.69455906  0.11460072    -0.10000
H629        H  0.25302433  0.73548050  0.18702357     0.09700
H630        H  0.30052220  0.79106869  0.09966417     0.07200
H631        H  0.20292748  0.66645603  0.10249152     0.07000
C632        C  0.23517186  0.70498000  0.41299294     0.04100
C633        C  0.23263077  0.70145130  0.44519894    -0.12100
C634        C  0.26250262  0.73270274  0.46440486     0.01600
C635        C  0.29456978  0.76797693  0.45138435    -0.10600
C636        C  0.29748231  0.77177241  0.41912986     0.04100
C637        C  0.26825220  0.73943708  0.40015679    -0.10000
H638        H  0.20701154  0.67497294  0.45529593     0.09700
H639        H  0.31607116  0.79292425  0.46635888     0.07200
H640        H  0.26986894  0.74213220  0.37518425     0.07000
C641        C  0.24633537  0.97701992  0.14723374     0.04100
C642        C  0.21114846  0.97322440  0.16120320    -0.12100
C643        C  0.18341335  0.98169949  0.14500882     0.01600
C644        C  0.18898668  0.98925872  0.11313071    -0.10600
C645        C  0.22128039  0.98779289  0.09801559     0.04100
C646        C  0.25099361  0.98336705  0.11534686    -0.10000
H647        H  0.20685863  0.96602257  0.18557594     0.09700
H648        H  0.16849815  0.99620776  0.09988924     0.07200
H649        H  0.27730873  0.98461961  0.10407467     0.07000
C650        C  0.26943810  0.00328378  0.41884028     0.04100
C651        C  0.26341503  0.99504230  0.45033917    -0.12100
C652        C  0.22913219  0.99339010  0.46434763     0.01600
C653        C  0.19823615  0.99440215  0.44593229    -0.10600
C654        C  0.20449881  0.00419440  0.41421397     0.04100
C655        C  0.24313779  0.01345119  0.40241993    -0.10000
H656        H  0.28457122  0.98907684  0.46373391     0.09700
H657        H  0.16933660  0.98688421  0.45664026     0.07200
H658        H  0.25179440  0.02516176  0.37945694     0.07000
C659        C  0.46080343  0.72531340  0.15026701     0.04100
C660        C  0.46299820  0.72770494  0.11787381    -0.12100
C661        C  0.46404273  0.69696372  0.10034247     0.01600
C662        C  0.46494217  0.66480049  0.11547692    -0.10600
C663        C  0.46268182  0.66195527  0.14789103     0.04100
C664        C  0.45864470  0.69152304  0.16482192    -0.10000
H665        H  0.46413384  0.75343844  0.10637990     0.09700
H666        H  0.46856121  0.64275129  0.10198764     0.07200
H667        H  0.45645097  0.68961681  0.18981049     0.07000
C668        C  0.47698684  0.73620590  0.41766178     0.04100
C669        C  0.48284573  0.70722256  0.40209782    -0.12100
C670        C  0.47967654  0.67332818  0.41733986     0.01600
C671        C  0.47316580  0.67023197  0.44946952    -0.10600
C672        C  0.46990846  0.70062228  0.46585757     0.04100
C673        C  0.47093359  0.73313205  0.44971012    -0.10000
H674        H  0.48894469  0.71067188  0.37753167     0.09700
H675        H  0.47102180  0.64457972  0.46178236     0.07200
H676        H  0.46774253  0.75620947  0.46209546     0.07000
O677        O  0.39017024  0.51120750  0.25256403    -0.87200
C678        C  0.11088001  0.59230744  0.32266948     1.12800
O679        O  0.44061777  0.97567578  0.28332045    -1.35100
O680        O  0.07454306  0.59128908  0.24057091    -0.88700
O681        O  0.35674609  0.94385557  0.24946019    -0.89400
O682        O  0.43419867  0.92790224  0.21852031    -0.78200
O683        O  0.48313024  0.55251991  0.25255015    -1.00300
C684        C  0.05384720  0.97055916  0.22492086     1.22800
O685        O  0.47969522  0.93002006  0.28326238    -1.35200
Mn686      Mn  0.48476979  0.97605662  0.31645687     1.82100
O687        O  0.02086740  0.96950380  0.21664351    -0.77300
O688        O  0.10939892  0.55857111  0.24725606    -0.86700
C689        C  0.05868512  0.97288847  0.33839398     1.13900
C690        C  0.10346896  0.58451000  0.23342730     1.08700
O691        O  0.44229029  0.93635103  0.34904809    -0.78200
O692        O  0.02649165  0.51493399  0.28120703    -1.31900
O693        O  0.40036049  0.89665086  0.31412137    -0.97400
C694        C  0.47256745  0.84911392  0.23849381     1.07400
Mn695      Mn  0.08303164  0.51487637  0.28157579     1.48600
O696        O  0.43971524  0.84527289  0.25015139    -0.86600
Mn697      Mn  0.38099907  0.92311581  0.28433324     1.49600
O698        O  0.40107160  0.51540806  0.32179455    -0.90500
C699        C  0.47909933  0.54489061  0.22496874     1.20600
C700        C  0.37137205  0.98223176  0.33110315     1.12600
Mn701      Mn  0.47987703  0.97163709  0.24888063     1.81000
O702        O  0.06058504  0.97028304  0.31049412    -0.95700
Mn703      Mn  0.44063842  0.53157049  0.28403146     1.49300
C704        C  0.36136948  0.97784019  0.24109127     1.09100
Mn705      Mn  0.03264701  0.92345491  0.28207132     1.49900
C706        C  0.47847885  0.85260804  0.32848070     1.12000
O707        O  0.39694581  0.89320653  0.25537043    -1.01500
O708        O  0.11060040  0.55967356  0.31603868    -0.91100
C709        C  0.40217634  0.89699406  0.22746808     1.23300
O710        O  0.05941365  0.96874677  0.25261862    -1.01900
O711        O  0.08523898  0.60092800  0.30986051    -0.89300
O712        O  0.01269512  0.87932662  0.31721490    -0.88900
O713        O  0.36136187  0.94822514  0.31867657    -0.88900
Mn714      Mn  0.03402319  0.57372162  0.27832880     1.47900
O715        O  0.02862162  0.97554122  0.34790365    -0.77400
C716        C  0.40906528  0.90440209  0.34171811     1.16400
O717        O  0.47780422  0.51262354  0.21648302    -0.76100
O718        O  0.49094565  0.52336218  0.34742777    -0.75700
Mn719      Mn  0.42311082  0.87335702  0.28475046     1.51100
O720        O  0.00823900  0.87721832  0.24777250    -0.88100
O721        O  0.49156285  0.55828523  0.30968727    -0.95600
O722        O  0.44424504  0.84908199  0.31924685    -0.90600
C723        C  0.49344695  0.55561851  0.33757613     1.14200
C724        C  0.49220824  0.58710798  0.35815551    -0.04400
C725        C  0.51491296  0.60049690  0.38660621    -0.01500
C726        C  0.51126619  0.62874546  0.40607139     0.03500
C727        C  0.48230957  0.64131610  0.39860796    -0.04400
C728        C  0.45873256  0.62670916  0.37073966    -0.01500
C729        C  0.46700799  0.60382107  0.34938218     0.03500
C730        C  0.04508511  0.58857411  0.39455119     0.38100
C731        C  0.42518212  0.63469169  0.36394250     0.38100
C732        C  0.45127884  0.60031093  0.31785671     0.36500
C733        C  0.03879635  0.64632980  0.43289110     0.36500
N734        N  0.43915039  0.59877456  0.29274382    -0.38300
N735        N  0.06091223  0.66061476  0.45419256    -0.38300
N736        N  0.39834773  0.64085183  0.35853627    -0.37700
N737        N  0.07030246  0.58057762  0.40109949    -0.37700
C738        C  0.47754796  0.76950359  0.39924506    -0.04400
C739        C  0.01510872  0.79971400  0.38728574    -0.01500
C740        C  0.01550698  0.82563122  0.36381233     0.03500
C741        C  0.47814099  0.82391289  0.35319474    -0.04400
C742        C  0.44014507  0.79298337  0.36579993    -0.01500
C743        C  0.44016586  0.76644287  0.38868866     0.03500
C744        C  0.05367532  0.80286880  0.39840171     0.38100
C745        C  0.40021519  0.78536615  0.35383779     0.38100
C746        C  0.40129031  0.73441627  0.40047321     0.36500
C747        C  0.05440649  0.84996891  0.34864032     0.36500
N748        N  0.37035927  0.70897950  0.40996343    -0.38300
N749        N  0.08618391  0.86704807  0.33698591    -0.38300
N750        N  0.36814417  0.77859837  0.34427211    -0.37700
N751        N  0.08430908  0.80529950  0.40727918    -0.37700
C752        C  0.46907877  0.63114083  0.16494464    -0.04400
C753        C  0.44516835  0.58889767  0.15819587    -0.01500
C754        C  0.45001388  0.56066925  0.17660058     0.03500
C755        C  0.47678302  0.57417637  0.20312033    -0.04400
C756        C  0.00052754  0.61654053  0.20962140    -0.01500
C757        C  0.99880887  0.64450750  0.18946227     0.03500
C758        C  0.41439136  0.57411375  0.13318413     0.38100
C759        C  0.02638638  0.63241007  0.23749207     0.38100
C760        C  0.02881629  0.68743844  0.19373173     0.36500
C761        C  0.42515359  0.51757232  0.16946728     0.36500
N762        N  0.05293823  0.72151645  0.19725068    -0.38300
N763        N  0.40522702  0.48318390  0.16383908    -0.38300
N764        N  0.04665757  0.64610133  0.25974817    -0.37700
N765        N  0.38983798  0.56210210  0.11320113    -0.37700
C766        C  0.46337119  0.75916009  0.16974211    -0.04400
C767        C  0.00221637  0.79261530  0.17828063    -0.01500
C768        C  0.00528044  0.82258926  0.19949372     0.03500
C769        C  0.46914844  0.81895132  0.21352381    -0.04400
C770        C  0.42984615  0.78538675  0.20373305    -0.01500
C771        C  0.42730796  0.75636737  0.18176081     0.03500
C772        C  0.03946711  0.79581805  0.16552506     0.38100
C773        C  0.39135250  0.77934893  0.21621993     0.38100
C774        C  0.38733360  0.72318558  0.17121149     0.36500
C775        C  0.04625438  0.85681850  0.20654197     0.36500
N776        N  0.35581274  0.69672023  0.16225838    -0.38300
N777        N  0.07909876  0.88392208  0.21196681    -0.38300
N778        N  0.36033639  0.77397323  0.22597432    -0.37700
N779        N  0.06925198  0.79848502  0.15546354    -0.37700
C780        C  0.46798662  0.69978662  0.50031349    -0.04400
C781        C  0.50450435  0.72334074  0.01837320    -0.01500
C782        C  0.50306438  0.72328384  0.05103246     0.03500
C783        C  0.46528689  0.69874691  0.06591300    -0.04400
C784        C  0.42882053  0.67479961  0.04789353    -0.01500
C785        C  0.43008322  0.67562740  0.01519364     0.03500
C786        C  0.54383331  0.74682053  0.50325979     0.38100
C787        C  0.39000833  0.64928321  0.06311575     0.38100
C788        C  0.39240666  0.65171048  0.99684184     0.36500
C789        C  0.54058103  0.74810836  0.06936440     0.36500
N790        N  0.36229747  0.63268171  0.48221551    -0.38300
N791        N  0.07052687  0.76804313  0.08394466    -0.38300
N792        N  0.35920024  0.62887722  0.07541950    -0.37700
N793        N  0.57516131  0.76524384  0.49109575    -0.37700
C794        C  0.29654674  0.99298424  0.40082126    -0.04400
C795        C  0.33987821  0.01298568  0.40535225    -0.01500
C796        C  0.36398753  0.00537032  0.38442531     0.03500
C797        C  0.34568968  0.98315074  0.35661967    -0.04400
C798        C  0.30204958  0.96150683  0.35338488    -0.01500
C799        C  0.27797544  0.96287269  0.37735455     0.03500
C800        C  0.35947599  0.04036259  0.43159595     0.38100
C801        C  0.28148524  0.94048024  0.32473113     0.38100
C802        C  0.23445042  0.93215678  0.37876551     0.36500
C803        C  0.40557239  0.01551528  0.39352131     0.36500
N804        N  0.19989847  0.90738489  0.38019977    -0.38300
N805        N  0.43764203  0.52152374  0.40231940    -0.38300
N806        N  0.26448463  0.92426021  0.30183681    -0.37700
N807        N  0.37528608  0.56206532  0.45262771    -0.39500
C808        C  0.09404468  0.97799145  0.35887558    -0.04400
C809        C  0.10085004  0.99518384  0.38903512    -0.01500
C810        C  0.13914514  0.00871986  0.40497702     0.03500
C811        C  0.16920177  0.99989672  0.39331865    -0.04400
C812        C  0.16199778  0.98234123  0.36290987    -0.01500
C813        C  0.12462731  0.97068161  0.34645114     0.03500
C814        C  0.06780206  0.99693171  0.40478059     0.38100
C815        C  0.19341031  0.97895808  0.34606242     0.38100
C816        C  0.11778328  0.95000176  0.31657881     0.36500
C817        C  0.14880230  0.03502870  0.43202882     0.36500
N818        N  0.11264256  0.93335895  0.29297366    -0.38300
N819        N  0.15654990  0.05630964  0.45341338    -0.38300
N820        N  0.21748151  0.97726073  0.33053937    -0.37700
N821        N  0.04099555  0.99703815  0.41776795    -0.37700
C822        C  0.33202564  0.97829597  0.21656688    -0.04400
C823        C  0.33926834  0.01497964  0.20236088    -0.01500
C824        C  0.31290801  0.01403837  0.17797829     0.03500
C825        C  0.27888475  0.97689056  0.16750628    -0.04400
C826        C  0.27084924  0.94072754  0.18181373    -0.01500
C827        C  0.29563641  0.94161538  0.20716388     0.03500
C828        C  0.37118691  0.55434592  0.21420501     0.38100
C829        C  0.23546149  0.90250954  0.17127769     0.38100
C830        C  0.27915948  0.90592488  0.22618733     0.36500
C831        C  0.31934932  0.55170712  0.16472419     0.36500
N832        N  0.26403579  0.87764624  0.24163071    -0.38300
N833        N  0.32437225  0.58167581  0.15418490    -0.38300
N834        N  0.20731549  0.87209645  0.16281237    -0.37700
N835        N  0.39597997  0.58603485  0.22367316    -0.37700
C836        C  0.15060659  0.98442818  0.16273741    -0.04400
C837        C  0.10901244  0.96703808  0.15182377    -0.01500
C838        C  0.07902556  0.96832625  0.17066375     0.03500
C839        C  0.08749248  0.97778226  0.20272426    -0.04400
C840        C  0.12951739  0.99557189  0.21328295    -0.01500
C841        C  0.16088601  0.00323726  0.19236460     0.03500
C842        C  0.09609775  0.94631085  0.12199395     0.38100
C843        C  0.14220226  0.50758283  0.24529297     0.38100
C844        C  0.20389512  0.53134561  0.20135384     0.36500
C845        C  0.04139261  0.96323326  0.15617013     0.36500
N846        N  0.23800650  0.55381468  0.20858352    -0.38300
N847        N  0.51255426  0.96120672  0.14391041    -0.38300
N848        N  0.15412140  0.51830690  0.27041215    -0.37700
N849        N  0.08552196  0.92946108  0.09828533    -0.37700
C850        C  0.22598165  0.99137686  0.49848127    -0.04400
C851        C  0.21378076  0.95463383  0.01383220    -0.01500
C852        C  0.21228395  0.95359086  0.04642119     0.03500
C853        C  0.22299327  0.98929437  0.06374693    -0.04400
C854        C  0.23444054  0.52584109  0.04831336    -0.01500
C855        C  0.23642185  0.52697042  0.01576331     0.03500
C856        C  0.20251277  0.91797990  0.49603808     0.38100
C857        C  0.24424852  0.56226698  0.06592171     0.38100
C858        C  0.25018975  0.56503624  0.99999016     0.36500
C859        C  0.19865402  0.91553429  0.06215210     0.36500
N860        N  0.26128690  0.59534097  0.48728480    -0.38300
N861        N  0.18766985  0.88522725  0.07478633    -0.38300
N862        N  0.25171796  0.59123715  0.07994964    -0.37700
N863        N  0.19350604  0.88873625  0.48181247    -0.37700
C864        C  0.32722857  0.81098757  0.40445418    -0.04400
C865        C  0.37067542  0.82953594  0.40881337    -0.01500
C866        C  0.39762134  0.86269875  0.39018834     0.03500
C867        C  0.38127846  0.87536832  0.36551425    -0.04400
C868        C  0.33763442  0.85758138  0.36262342    -0.01500
C869        C  0.31140584  0.82828301  0.38355602     0.03500
C870        C  0.38769518  0.81359724  0.43146623     0.38100
C871        C  0.31796101  0.86703452  0.33762145     0.38100
C872        C  0.26769339  0.81609054  0.38369726     0.36500
C873        C  0.44206802  0.88154944  0.39509519     0.36500
N874        N  0.23313575  0.80713958  0.38381435    -0.38300
N875        N  0.47751618  0.89654017  0.39917640    -0.38300
N876        N  0.29885239  0.87170083  0.31843895    -0.37700
N877        N  0.40125385  0.80093475  0.44963982    -0.37700
C878        C  0.14270721  0.62130649  0.34634181    -0.04400
C879        C  0.13940852  0.65379697  0.35988541    -0.01500
C880        C  0.16796627  0.67903744  0.38325448     0.03500
C881        C  0.20174871  0.67426322  0.39218351    -0.04400
C882        C  0.20578156  0.64271799  0.37892248    -0.01500
C883        C  0.17713874  0.61685802  0.35587440     0.03500
C884        C  0.10775594  0.66287714  0.34951445     0.38100
C885        C  0.23969459  0.63684016  0.38918175     0.38100
C886        C  0.18592013  0.58801325  0.34074182     0.36500
C887        C  0.16214928  0.70975086  0.39862638     0.36500
N888        N  0.19426970  0.56589260  0.32877166    -0.38300
N889        N  0.15687413  0.73371047  0.41108595    -0.38300
N890        N  0.26645864  0.63186684  0.39750055    -0.37700
N891        N  0.08304412  0.67083765  0.34121293    -0.37700
C892        C  0.37167032  0.86528333  0.20500013    -0.04400
C893        C  0.38470887  0.85485732  0.17753714    -0.01500
C894        C  0.35547671  0.82351472  0.15743868     0.03500
C895        C  0.31244442  0.80514328  0.16289921    -0.04400
C896        C  0.29977000  0.81854006  0.18879439    -0.01500
C897        C  0.32902963  0.84342894  0.21152860     0.03500
C898        C  0.42839208  0.87105653  0.17252014     0.38100
C899        C  0.25633099  0.80561671  0.19285398     0.38100
C900        C  0.31540938  0.83835239  0.24300819     0.36500
C901        C  0.37019329  0.80846336  0.13264288     0.36500
N902        N  0.30372553  0.83101720  0.26799741    -0.38300
N903        N  0.38216205  0.79651853  0.11298983    -0.38300
N904        N  0.22170690  0.79532625  0.19594188    -0.37700
N905        N  0.46302672  0.88233520  0.16862521    -0.37700
C906        C  0.19220309  0.66308340  0.16614643    -0.04400
C907        C  0.20545630  0.65123941  0.19302612    -0.01500
C908        C  0.17656549  0.62595881  0.21486782     0.03500
C909        C  0.13349956  0.60931857  0.20916322    -0.04400
C910        C  0.12004662  0.61713109  0.18057238    -0.01500
C911        C  0.14907068  0.64497157  0.15969767     0.03500
C912        C  0.24915111  0.66551959  0.19870546     0.38100
C913        C  0.07661217  0.59473568  0.17151344     0.38100
C914        C  0.13408978  0.65577888  0.13219689     0.36500
C915        C  0.19188939  0.61904215  0.24397450     0.36500
N916        N  0.12188993  0.66412688  0.11025339    -0.38300
N917        N  0.20473877  0.61408462  0.26708690    -0.38300
N918        N  0.04241113  0.57636355  0.16304426    -0.37700
N919        N  0.28391370  0.67709798  0.20367727    -0.37700
C920        C  0.25217851  0.72628677  0.06344145    -0.04400
C921        C  0.27844678  0.71498910  0.04871525    -0.01500
C922        C  0.28192308  0.71713986  0.01624836     0.03500
C923        C  0.25846790  0.72978069  0.49843700    -0.04400
C924        C  0.23158619  0.74027531  0.01312342    -0.01500
C925        C  0.22850159  0.73860325  0.04559293     0.03500
C926        C  0.30224907  0.70169073  0.06707249     0.38100
C927        C  0.20811430  0.75407588  0.49486990     0.38100
C928        C  0.20151231  0.75021544  0.06074777     0.36500
C929        C  0.31028739  0.70730880  0.00115941     0.36500
N930        N  0.18001701  0.75950200  0.07285786    -0.38300
N931        N  0.33309410  0.69982892  0.48901236    -0.38300
N932        N  0.18955441  0.76528448  0.48034811    -0.37700
N933        N  0.32110628  0.69100194  0.08179460    -0.37700
C934        C  0.22342272  0.69727102  0.64703890     0.04100
C935        C  0.25262554  0.73362544  0.66200140    -0.12100
C936        C  0.28115717  0.76761681  0.64544555     0.01600
C937        C  0.27981889  0.76493859  0.61303601    -0.10600
C938        C  0.25198114  0.72841724  0.59766218     0.04100
C939        C  0.22409510  0.69456696  0.61460273    -0.10000
H940        H  0.25303796  0.73548782  0.68702488     0.09700
H941        H  0.30052715  0.79107372  0.59966322     0.07200
H942        H  0.20292363  0.66646472  0.60249432     0.07000
C943        C  0.23518188  0.70497585  0.91299513     0.04100
C944        C  0.23264508  0.70144809  0.94520121    -0.12100
C945        C  0.26251890  0.73270026  0.96440547     0.01600
C946        C  0.29458368  0.76797444  0.95138313    -0.10600
C947        C  0.29749234  0.77176878  0.91912830     0.04100
C948        C  0.26826061  0.73943224  0.90015697    -0.10000
H949        H  0.20702680  0.67497033  0.95529968     0.09700
H950        H  0.31608553  0.79292286  0.96635657     0.07200
H951        H  0.26987442  0.74212599  0.87518426     0.07000
C952        C  0.24635525  0.97704483  0.64723048     0.04100
C953        C  0.21116780  0.97324630  0.66120125    -0.12100
C954        C  0.18343146  0.98172181  0.64500918     0.01600
C955        C  0.18900465  0.98928491  0.61313131    -0.10600
C956        C  0.22129865  0.98782157  0.59801411     0.04100
C957        C  0.25101311  0.98339560  0.61534386    -0.10000
H958        H  0.20687781  0.96604031  0.68557325     0.09700
H959        H  0.16851494  0.99623385  0.59989136     0.07200
H960        H  0.27732825  0.98464967  0.60407047     0.07000
C961        C  0.26943416  0.00326353  0.91884504     0.04100
C962        C  0.26340974  0.99502011  0.95034356    -0.12100
C963        C  0.22912457  0.99336405  0.96435098     0.01600
C964        C  0.19822865  0.99437571  0.94593538    -0.10600
C965        C  0.20449285  0.00417068  0.91421773     0.04100
C966        C  0.24313233  0.01342859  0.90242399    -0.10000
H967        H  0.28456663  0.98905609  0.96373875     0.09700
H968        H  0.16932838  0.98685658  0.95664270     0.07200
H969        H  0.25178834  0.02513863  0.87946070     0.07000
C970        C  0.46080510  0.72531477  0.65026617     0.04100
C971        C  0.46299960  0.72770557  0.61787289    -0.12100
C972        C  0.46404263  0.69696326  0.60034190     0.01600
C973        C  0.46494004  0.66479924  0.61547662    -0.10600
C974        C  0.46268041  0.66195501  0.64789073     0.04100
C975        C  0.45864550  0.69152422  0.66482145    -0.10000
H976        H  0.46413674  0.75343957  0.60637869     0.09700
H977        H  0.46855797  0.64274914  0.60198762     0.07200
H978        H  0.45645329  0.68961901  0.68981015     0.07000
C979        C  0.47697938  0.73620330  0.91766082     0.04100
C980        C  0.48283707  0.70721854  0.90209799    -0.12100
C981        C  0.47966501  0.67332343  0.91734064     0.01600
C982        C  0.47315203  0.67022751  0.94947003    -0.10600
C983        C  0.46989640  0.70061934  0.96585733     0.04100
C984        C  0.47092445  0.73313002  0.94970903    -0.10000
H985        H  0.48893828  0.71066788  0.87753215     0.09700
H986        H  0.47100647  0.64457500  0.96178347     0.07200
H987        H  0.46773506  0.75620889  0.96209373     0.07000
O988        O  0.39017676  0.51121421  0.75256690    -0.87200
C989        C  0.11088389  0.59230829  0.82267373     1.12800
O990        O  0.44062347  0.97567988  0.78332066    -1.35100
O991        O  0.07454985  0.59129574  0.74057555    -0.88700
O992        O  0.35675291  0.94386212  0.74945835    -0.89400
O993        O  0.43420681  0.92790910  0.71851889    -0.78200
O994        O  0.48313586  0.55252638  0.75255248    -1.00300
C995        C  0.05385496  0.97056513  0.72492147     1.22800
O996        O  0.47970101  0.93002405  0.78326165    -1.35200
Mn997      Mn  0.48477457  0.97605947  0.81645735     1.82100
O998        O  0.02087617  0.96951187  0.71664379    -0.77300
O999        O  0.10940496  0.55857639  0.74725819    -0.86700
C1000       C  0.05868882  0.97288912  0.83839492     1.13900
C1001       C  0.10347537  0.58451658  0.73343083     1.08700
O1002       O  0.44229450  0.93635214  0.84904722    -0.78200
O1003       O  0.02649730  0.51493841  0.78120877    -1.31900
O1004       O  0.40036555  0.89665359  0.81411928    -0.97400
C1005       C  0.47257289  0.84911793  0.73849207     1.07400
Mn1006     Mn  0.08303679  0.51487984  0.78157717     1.48600
O1007       O  0.43972079  0.84527821  0.75014855    -0.86600
Mn1008     Mn  0.38100480  0.92311990  0.78433149     1.49600
O1009       O  0.40107658  0.51540914  0.82179804    -0.90500
C1010       C  0.47910453  0.54489650  0.72497094     1.20600
C1011       C  0.37137630  0.98223118  0.83110475     1.12600
Mn1012     Mn  0.47988396  0.97164271  0.74888080     1.81000
O1013       O  0.06058973  0.97028533  0.81049491    -0.95700
Mn1014     Mn  0.44064390  0.53157464  0.78403426     1.49300
C1015       C  0.36137708  0.97784784  0.74109120     1.09100
Mn1016     Mn  0.03265221  0.92345808  0.78207095     1.49900
C1017       C  0.47848147  0.85260843  0.82847762     1.12000
O1018       O  0.39695311  0.89321273  0.75536827    -1.01500
O1019       O  0.11060404  0.55967489  0.81604104    -0.91100
C1020       C  0.40218422  0.89700080  0.72746609     1.23300
O1021       O  0.05941967  0.96875121  0.75261928    -1.01900
O1022       O  0.08524380  0.60093069  0.80986549    -0.89300
O1023       O  0.01269879  0.87932801  0.81721349    -0.88900
O1024       O  0.36136632  0.94822603  0.81867567    -0.88900
Mn1025     Mn  0.03402889  0.57372644  0.77833268     1.47900
O1026       O  0.02862572  0.97554261  0.84790459    -0.77400
C1027       C  0.40907008  0.90440317  0.84171628     1.16400
O1028       O  0.47781124  0.51263036  0.71648488    -0.76100
O1029       O  0.49094943  0.52336371  0.84742996    -0.75700
Mn1030     Mn  0.42311621  0.87336115  0.78474783     1.51100
O1031       O  0.00824476  0.87722191  0.74777123    -0.88100
O1032       O  0.49156772  0.55828770  0.80969015    -0.95600
O1033       O  0.44424847  0.84908354  0.81924312    -0.90600
C1034       C  0.49345050  0.55562025  0.83757898     1.14200
C1035       C  0.49220757  0.58710773  0.85815843    -0.04400
C1036       C  0.51490786  0.60049531  0.88661102    -0.01500
C1037       C  0.51125664  0.62874154  0.90607590     0.03500
C1038       C  0.48230048  0.64131187  0.89860979    -0.04400
C1039       C  0.45872823  0.62670678  0.87073933    -0.01500
C1040       C  0.46700783  0.60382066  0.84938284     0.03500
C1041       C  0.04508074  0.58857413  0.89455906     0.38100
C1042       C  0.42517938  0.63469043  0.86393827     0.38100
C1043       C  0.45128432  0.60031336  0.81785594     0.36500
C1044       C  0.03878192  0.64632349  0.93289940     0.36500
N1045       N  0.43916037  0.59877951  0.79274197    -0.38300
N1046       N  0.06089381  0.66060697  0.95420308    -0.38300
N1047       N  0.39834652  0.64085175  0.85852872    -0.37700
N1048       N  0.07029911  0.58057980  0.90110920    -0.37700
C1049       C  0.47754364  0.76950162  0.89924277    -0.04400
C1050       C  0.01510638  0.79970795  0.88728021    -0.01500
C1051       C  0.01550595  0.82562411  0.86380535     0.03500
C1052       C  0.47814106  0.82391081  0.85319044    -0.04400
C1053       C  0.44014408  0.79298291  0.86579544    -0.01500
C1054       C  0.44016276  0.76644300  0.88868557     0.03500
C1055       C  0.05367171  0.80285801  0.89839383     0.38100
C1056       C  0.40021517  0.78536550  0.85383069     0.38100
C1057       C  0.40128606  0.73441856  0.90047031     0.36500
C1058       C  0.05440297  0.84995258  0.84862762     0.36500
N1059       N  0.37035405  0.70898367  0.90996072    -0.38300
N1060       N  0.08617700  0.86702391  0.83696754    -0.38300
N1061       N  0.36814511  0.77859746  0.84426255    -0.37700
N1062       N  0.08430440  0.80528461  0.90726929    -0.37700
C1063       C  0.46907832  0.63114148  0.66494457    -0.04400
C1064       C  0.44516652  0.58889788  0.65819817    -0.01500
C1065       C  0.45001358  0.56067093  0.67660365     0.03500
C1066       C  0.47678513  0.57418026  0.70312219    -0.04400
C1067       C  0.00053111  0.61654550  0.70962092    -0.01500
C1068       C  0.99881167  0.64451051  0.68946011     0.03500
C1069       C  0.41438794  0.57411245  0.63318747     0.38100
C1070       C  0.02639342  0.63241756  0.73748965     0.38100
C1071       C  0.02882288  0.68744124  0.69372420     0.36500
C1072       C  0.42515340  0.51757355  0.66947198     0.36500
N1073       N  0.05294834  0.72151908  0.69723814    -0.38300
N1074       N  0.40522689  0.48318481  0.66384492    -0.38300
N1075       N  0.04666750  0.64611086  0.75974423    -0.37700
N1076       N  0.38983346  0.56209991  0.61320519    -0.37700
C1077       C  0.46337387  0.75916222  0.66974098    -0.04400
C1078       C  0.00221936  0.79261815  0.67827813    -0.01500
C1079       C  0.00528422  0.82259272  0.69949101     0.03500
C1080       C  0.46915297  0.81895453  0.71352245    -0.04400
C1081       C  0.42985030  0.78538929  0.70373300    -0.01500
C1082       C  0.42731119  0.75636970  0.68176058     0.03500
C1083       C  0.03946958  0.79582054  0.66552203     0.38100
C1084       C  0.39135720  0.77935079  0.71622157     0.38100
C1085       C  0.38733645  0.72318799  0.67121183     0.36500
C1086       C  0.04625813  0.85682280  0.70653780     0.36500
N1087       N  0.35581541  0.69672277  0.66225886    -0.38300
N1088       N  0.07910237  0.88392721  0.71196152    -0.38300
N1089       N  0.36034161  0.77397468  0.72597736    -0.37700
N1090       N  0.06925415  0.79848725  0.65546010    -0.37700
C1091       C  0.46797703  0.69978580  0.00031351    -0.04400
C1092       C  0.50451397  0.72333393  0.51837493    -0.01500
C1093       C  0.50307071  0.72327772  0.55103401     0.03500
C1094       C  0.46529000  0.69874719  0.56591257    -0.04400
C1095       C  0.42882392  0.67480568  0.54789131    -0.01500
C1096       C  0.43008964  0.67563496  0.51519155     0.03500
C1097       C  0.54382066  0.74683599  0.00325598     0.38100
C1098       C  0.39000923  0.64929245  0.56311144     0.38100
C1099       C  0.39241317  0.65172587  0.49683773     0.36500
C1100       C  0.54058704  0.74809636  0.56936788     0.36500
N1101       N  0.36229077  0.63266015  0.98222127    -0.38300
N1102       N  0.07053306  0.76802572  0.58394886    -0.38300
N1103       N  0.35919907  0.62888828  0.57541331    -0.37700
N1104       N  0.57514625  0.76526666  0.99109017    -0.37700
C1105       C  0.29654600  0.99296791  0.90082660    -0.04400
C1106       C  0.33987765  0.01297349  0.90535736    -0.01500
C1107       C  0.36398937  0.00536337  0.88442907     0.03500
C1108       C  0.34569300  0.98314601  0.85662228    -0.04400
C1109       C  0.30205276  0.96149741  0.85338818    -0.01500
C1110       C  0.27797746  0.96285699  0.87735944     0.03500
C1111       C  0.35947312  0.04034870  0.93160225     0.38100
C1112       C  0.28148908  0.94047286  0.82473366     0.38100
C1113       C  0.23445430  0.93213613  0.87877137     0.36500
C1114       C  0.40557464  0.01550970  0.89352512     0.36500
N1115       N  0.19990387  0.90736059  0.88020669    -0.38300
N1116       N  0.43764483  0.52152013  0.90232334    -0.38300
N1117       N  0.26448939  0.92425440  0.80183863    -0.37700
N1118       N  0.37528037  0.56205012  0.95263501    -0.39500
C1119       C  0.09404572  0.97798668  0.85887725    -0.04400
C1120       C  0.10085188  0.99517772  0.88903739    -0.01500
C1121       C  0.13914454  0.00870582  0.90498097     0.03500
C1122       C  0.16919747  0.99987728  0.89332277    -0.04400
C1123       C  0.16199222  0.98232242  0.86291383    -0.01500
C1124       C  0.12462443  0.97067038  0.84645369     0.03500
C1125       C  0.06780664  0.99693176  0.90478188     0.38100
C1126       C  0.19340074  0.97893011  0.84606847     0.38100
C1127       C  0.11777903  0.94999196  0.81658060     0.36500
C1128       C  0.14880294  0.03501078  0.93203539     0.36500
N1129       N  0.11263765  0.93335132  0.79297439    -0.38300
N1130       N  0.15655165  0.05628818  0.95342233    -0.38300
N1131       N  0.21746887  0.97722565  0.83054650    -0.37700
N1132       N  0.04100207  0.99704250  0.91776886    -0.37700
C1133       C  0.33203715  0.97830793  0.71656511    -0.04400
C1134       C  0.33928026  0.01499492  0.70236441    -0.01500
C1135       C  0.31292296  0.01405865  0.67798134     0.03500
C1136       C  0.27890421  0.97691242  0.66750180    -0.04400
C1137       C  0.27087023  0.94074577  0.68180226    -0.01500
C1138       C  0.29565194  0.94162850  0.70715457     0.03500
C1139       C  0.37119721  0.55435987  0.71421396     0.38100
C1140       C  0.23548917  0.90252882  0.67125674     0.38100
C1141       C  0.27917160  0.90593364  0.72617327     0.36500
C1142       C  0.31936368  0.55173150  0.66473436     0.36500
N1143       N  0.26404513  0.87765209  0.74161351    -0.38300
N1144       N  0.32438581  0.58170272  0.65420067    -0.38300
N1145       N  0.20734892  0.87211655  0.66278334    -0.37700
N1146       N  0.39598903  0.58604729  0.72368557    -0.37700
C1147       C  0.15062157  0.98444380  0.66273952    -0.04400
C1148       C  0.10902775  0.96705288  0.65182469    -0.01500
C1149       C  0.07903788  0.96833588  0.67066469     0.03500
C1150       C  0.08750206  0.97778940  0.70272573    -0.04400
C1151       C  0.12952627  0.99557821  0.71328615    -0.01500
C1152       C  0.16089740  0.00324696  0.69236899     0.03500
C1153       C  0.09611645  0.94632992  0.62199314     0.38100
C1154       C  0.14220758  0.50758455  0.74529718     0.38100
C1155       C  0.20390557  0.53135436  0.70136183     0.36500
C1156       C  0.04140347  0.96323865  0.65617064     0.36500
N1157       N  0.23801604  0.55382206  0.70859480    -0.38300
N1158       N  0.51256380  0.96120754  0.64390980    -0.38300
N1159       N  0.15412343  0.51830439  0.77041753    -0.37700
N1160       N  0.08554360  0.92948363  0.59828305    -0.37700
C1161       C  0.22597270  0.99135026  0.99848421    -0.04400
C1162       C  0.21379867  0.95466260  0.51382995    -0.01500
C1163       C  0.21230523  0.95362047  0.54641916     0.03500
C1164       C  0.22300869  0.98932266  0.56374487    -0.04400
C1165       C  0.23444741  0.52586883  0.54831087    -0.01500
C1166       C  0.23642567  0.52699787  0.51576049     0.03500
C1167       C  0.20248983  0.91795017  0.99603996     0.38100
C1168       C  0.24424890  0.56229290  0.56591909     0.38100
C1169       C  0.25018440  0.56506200  0.49998702     0.36500
C1170       C  0.19868446  0.91556562  0.56215034     0.36500
N1171       N  0.26129945  0.59531674  0.98728847    -0.38300
N1172       N  0.18770768  0.88525991  0.57478474    -0.38300
N1173       N  0.25171317  0.59126157  0.57994699    -0.37700
N1174       N  0.19347919  0.88870574  0.98181411    -0.37700
C1175       C  0.32723662  0.81098358  0.90445094    -0.04400
C1176       C  0.37068371  0.82953460  0.90881040    -0.01500
C1177       C  0.39762836  0.86269781  0.89018519     0.03500
C1178       C  0.38128426  0.87536692  0.86551164    -0.04400
C1179       C  0.33764013  0.85757754  0.86262047    -0.01500
C1180       C  0.31141213  0.82827674  0.88355193     0.03500
C1181       C  0.38770530  0.81359844  0.93146399     0.38100
C1182       C  0.31796650  0.86703183  0.83761943     0.38100
C1183       C  0.26769847  0.81607985  0.88369115     0.36500
C1184       C  0.44207519  0.88154960  0.89509146     0.36500
N1185       N  0.23313969  0.80712503  0.88380613    -0.38300
N1186       N  0.47752350  0.89654094  0.89917211    -0.38300
N1187       N  0.29885814  0.87169917  0.81843738    -0.37700
N1188       N  0.40126533  0.80093805  0.94963820    -0.37700
C1189       C  0.14271098  0.62130450  0.84634717    -0.04400
C1190       C  0.13941293  0.65379397  0.85989340    -0.01500
C1191       C  0.16797251  0.67903336  0.88326194     0.03500
C1192       C  0.20175579  0.67425889  0.89218786    -0.04400
C1193       C  0.20578670  0.64271333  0.87892545    -0.01500
C1194       C  0.17714208  0.61685422  0.85587804     0.03500
C1195       C  0.10775917  0.66287422  0.84952575     0.38100
C1196       C  0.23969969  0.63683421  0.88918255     0.38100
C1197       C  0.18592057  0.58800745  0.84074527     0.36500
C1198       C  0.16215678  0.70974613  0.89863623     0.36500
N1199       N  0.19426758  0.56588454  0.82877569    -0.38300
N1200       N  0.15688238  0.73370520  0.91109749    -0.38300
N1201       N  0.26646348  0.63185947  0.89749947    -0.37700
N1202       N  0.08304653  0.67083505  0.84122707    -0.37700
C1203       C  0.37167877  0.86529010  0.70499805    -0.04400
C1204       C  0.38471773  0.85486250  0.67753600    -0.01500
C1205       C  0.35548555  0.82351927  0.65743797     0.03500
C1206       C  0.31245338  0.80514946  0.66289782    -0.04400
C1207       C  0.29977873  0.81854760  0.68879197    -0.01500
C1208       C  0.32903802  0.84343634  0.71152620     0.03500
C1209       C  0.42840093  0.87106051  0.67251998     0.38100
C1210       C  0.25633947  0.80562372  0.69285132     0.38100
C1211       C  0.31541733  0.83835840  0.74300567     0.36500
C1212       C  0.37020148  0.80846487  0.63264384     0.36500
N1213       N  0.30373239  0.83102132  0.76799448    -0.38300
N1214       N  0.38216957  0.79651708  0.61299239    -0.38300
N1215       N  0.22171519  0.79533248  0.69593907    -0.37700
N1216       N  0.46303559  0.88233840  0.66862591    -0.37700
C1217       C  0.19220879  0.66309339  0.66615029    -0.04400
C1218       C  0.20546207  0.65124582  0.69302809    -0.01500
C1219       C  0.17657169  0.62596506  0.71487011     0.03500
C1220       C  0.13350576  0.60932674  0.70916693    -0.04400
C1221       C  0.12005259  0.61714408  0.68057809    -0.01500
C1222       C  0.14907636  0.64498679  0.65970445     0.03500
C1223       C  0.24915645  0.66552250  0.69870538     0.38100
C1224       C  0.07661817  0.59475082  0.67151927     0.38100
C1225       C  0.13409529  0.65580333  0.63220856     0.36500
C1226       C  0.19189597  0.61904633  0.74397582     0.36500
N1227       N  0.12189555  0.66415968  0.61026933    -0.38300
N1228       N  0.20474519  0.61408709  0.76708767    -0.38300
N1229       N  0.04241737  0.57638040  0.66304935    -0.37700
N1230       N  0.28391866  0.67709784  0.70367591    -0.37700
C1231       C  0.25217315  0.72629243  0.56344173    -0.04400
C1232       C  0.27843541  0.71498925  0.54871278    -0.01500
C1233       C  0.28190552  0.71713623  0.51624544     0.03500
C1234       C  0.25848427  0.72978092  0.99843764    -0.04400
C1235       C  0.23157469  0.74027946  0.51312529    -0.01500
C1236       C  0.22849599  0.73861087  0.54559538     0.03500
C1237       C  0.30223943  0.70169074  0.56706769     0.38100
C1238       C  0.20812776  0.75407233  0.99486627     0.38100
C1239       C  0.20151350  0.75022956  0.56075296     0.36500
C1240       C  0.31026199  0.70729717  0.50115334     0.36500
N1241       N  0.18002387  0.75952167  0.57286524    -0.38300
N1242       N  0.33312630  0.69984738  0.98902145    -0.38300
N1243       N  0.18956997  0.76528237  0.98034348    -0.37700
N1244       N  0.32109862  0.69100253  0.58178795    -0.37700
C1245       C  0.72341614  0.19726309  0.14703572     0.04100
C1246       C  0.75261404  0.23361852  0.16199996    -0.12100
C1247       C  0.78114692  0.26761123  0.14544598     0.01600
C1248       C  0.77981261  0.26493409  0.11303645    -0.10600
C1249       C  0.75197980  0.22841211  0.09766124     0.04100
C1250       C  0.72409393  0.19456000  0.11459996    -0.10000
H1251       H  0.75302294  0.23547962  0.18702335     0.09700
H1252       H  0.80052096  0.29107028  0.09966471     0.07200
H1253       H  0.70292710  0.16645709  0.10249045     0.07000
C1254       C  0.73517267  0.20498104  0.41299213     0.04100
C1255       C  0.73262929  0.20145135  0.44519801    -0.12100
C1256       C  0.76249987  0.23270232  0.46440490     0.01600
C1257       C  0.79456785  0.26797687  0.45138563    -0.10600
C1258       C  0.79748242  0.27177327  0.41913139     0.04100
C1259       C  0.76825378  0.23943854  0.40015722    -0.10000
H1260       H  0.70700940  0.17497262  0.45529406     0.09700
H1261       H  0.81606825  0.29292380  0.46636088     0.07200
H1262       H  0.76987212  0.24213461  0.37518478     0.07000
C1263       C  0.74633118  0.47701274  0.14723466     0.04100
C1264       C  0.71114467  0.47321848  0.16120402    -0.12100
C1265       C  0.68340981  0.48169350  0.14500922     0.01600
C1266       C  0.68898309  0.48925178  0.11313101    -0.10600
C1267       C  0.72127665  0.48778538  0.09801616     0.04100
C1268       C  0.75098939  0.48335911  0.11534767    -0.10000
H1269       H  0.70685509  0.46601785  0.18557699     0.09700
H1270       H  0.66849479  0.49620098  0.09988932     0.07200
H1271       H  0.77730448  0.48461133  0.10407562     0.07000
C1272       C  0.76943566  0.50328295  0.41884050     0.04100
C1273       C  0.76341324  0.49504200  0.45033948    -0.12100
C1274       C  0.72913009  0.49338884  0.46434816     0.01600
C1275       C  0.69823330  0.49440001  0.44593301    -0.10600
C1276       C  0.70449518  0.50419159  0.41421448     0.04100
C1277       C  0.74313422  0.51344893  0.40242011    -0.10000
H1278       H  0.78456994  0.48907713  0.46373410     0.09700
H1279       H  0.66933378  0.48688168  0.45664120     0.07200
H1280       H  0.75179007  0.52515879  0.37945686     0.07000
C1281       C  0.96080483  0.22531108  0.15026900     0.04100
C1282       C  0.96299875  0.22770315  0.11787581    -0.12100
C1283       C  0.96404202  0.19696191  0.10034361     0.01600
C1284       C  0.96494033  0.16479749  0.11547710    -0.10600
C1285       C  0.96268112  0.16195177  0.14789120     0.04100
C1286       C  0.95864596  0.19152012  0.16482313    -0.10000
H1287       H  0.96413475  0.25343720  0.10638253     0.09700
H1288       H  0.96855819  0.14274810  0.10198712     0.07200
H1289       H  0.95645361  0.18961371  0.18981175     0.07000
C1290       C  0.97699133  0.23620448  0.41766186     0.04100
C1291       C  0.98284826  0.20721942  0.40209867    -0.12100
C1292       C  0.97967807  0.17332515  0.41734156     0.01600
C1293       C  0.97316718  0.17022996  0.44947116    -0.10600
C1294       C  0.96991061  0.20062121  0.46585847     0.04100
C1295       C  0.97093762  0.23313144  0.44971025    -0.10000
H1296       H  0.98894660  0.21066730  0.37753238     0.09700
H1297       H  0.97102237  0.14457765  0.46178450     0.07200
H1298       H  0.96774735  0.25620968  0.46209504     0.07000
O1299       O  0.89017229  0.01120619  0.25256492    -0.87200
C1300       C  0.61088252  0.09230796  0.32266834     1.12800
O1301       O  0.94061558  0.47567349  0.28332155    -1.35100
O1302       O  0.57454522  0.09128886  0.24056985    -0.88700
O1303       O  0.85674387  0.44385174  0.24946150    -0.89400
O1304       O  0.93419674  0.42790021  0.21852160    -0.78200
O1305       O  0.98313157  0.05251830  0.25255033    -1.00300
C1306       C  0.55384548  0.47055999  0.22491997     1.22800
O1307       O  0.97969413  0.43001860  0.28326335    -1.35200
Mn1308     Mn  0.98476812  0.47605518  0.31645766     1.82100
O1309       O  0.52086617  0.46950563  0.21664255    -0.77300
O1310       O  0.60940168  0.05857169  0.24725606    -0.86700
C1311       C  0.55868247  0.47288822  0.33839321     1.13900
C1312       C  0.60347139  0.08451001  0.23342683     1.08700
O1313       O  0.94228955  0.43634970  0.34904902    -0.78200
O1314       O  0.52649379  0.01493506  0.28120624    -1.31900
O1315       O  0.90035977  0.39664844  0.31412273    -0.97400
C1316       C  0.97256801  0.34911277  0.23849471     1.07400
Mn1317     Mn  0.58303361  0.01487672  0.28157536     1.48600
O1318       O  0.93971564  0.34527140  0.25015233    -0.86600
Mn1319     Mn  0.88099746  0.42311279  0.28433463     1.49600
O1320       O  0.90107404  0.01540750  0.32179496    -0.90500
C1321       C  0.97909998  0.04488823  0.22496901     1.20600
C1322       C  0.87136893  0.48222856  0.33110396     1.12600
Mn1323     Mn  0.97987488  0.47163535  0.24888167     1.81000
O1324       O  0.56058256  0.47028286  0.31049333    -0.95700
Mn1325     Mn  0.94064044  0.03156939  0.28403202     1.49300
C1326       C  0.86136687  0.47783603  0.24109211     1.09100
Mn1327     Mn  0.53264425  0.42345509  0.28207011     1.49900
C1328       C  0.97847986  0.35260621  0.32848091     1.12000
O1329       O  0.89694474  0.39320392  0.25537186    -1.01500
O1330       O  0.61060233  0.05967358  0.31603843    -0.91100
C1331       C  0.90217497  0.39699162  0.22746948     1.23300
O1332       O  0.55941159  0.46874721  0.25261772    -1.01900
O1333       O  0.58524193  0.10092871  0.30985892    -0.89300
O1334       O  0.51269143  0.37932670  0.31721340    -0.88900
O1335       O  0.86135958  0.44822187  0.31867789    -0.88900
Mn1336     Mn  0.53402594  0.07372284  0.27832771     1.47900
O1337       O  0.52861916  0.47554146  0.34790277    -0.77400
C1338       C  0.90906485  0.40440041  0.34171937     1.16400
O1339       O  0.97780471  0.01262097  0.21648363    -0.76100
O1340       O  0.99094801  0.02336136  0.34742825    -0.75700
Mn1341     Mn  0.92311058  0.37335494  0.28475163     1.51100
O1342       O  0.50823614  0.37721857  0.24777095    -0.88100
O1343       O  0.99156494  0.05828452  0.30968776    -0.95600
O1344       O  0.94424562  0.34907968  0.31924755    -0.90600
C1345       C  0.99344945  0.05561773  0.33757665     1.14200
C1346       C  0.99221095  0.08710688  0.35815641    -0.04400
C1347       C  0.01491546  0.10049510  0.38660726    -0.01500
C1348       C  0.01126770  0.12874242  0.40607322     0.03500
C1349       C  0.98231039  0.14131233  0.39861028    -0.04400
C1350       C  0.95873304  0.12670524  0.37074219    -0.01500
C1351       C  0.96700997  0.10381930  0.34938378     0.03500
C1352       C  0.54508752  0.08857682  0.39455077     0.38100
C1353       C  0.92518047  0.13468505  0.36394645     0.38100
C1354       C  0.95128207  0.10031112  0.31785814     0.36500
C1355       C  0.53880139  0.14633630  0.43288806     0.36500
N1356       N  0.93915481  0.09877613  0.29274508    -0.38300
N1357       N  0.56091900  0.16062377  0.45418833    -0.38300
N1358       N  0.89834391  0.14084242  0.35854156    -0.37700
N1359       N  0.57030449  0.08058008  0.40109969    -0.37700
C1360       C  0.97755300  0.26950189  0.39924403    -0.04400
C1361       C  0.51510673  0.29971381  0.38728221    -0.01500
C1362       C  0.51550385  0.32562992  0.36380837     0.03500
C1363       C  0.97814321  0.32391029  0.35319385    -0.04400
C1364       C  0.94014853  0.29298414  0.36580290    -0.01500
C1365       C  0.94017076  0.26644449  0.38869183     0.03500
C1366       C  0.55367373  0.30286784  0.39839630     0.38100
C1367       C  0.90021793  0.28536845  0.35384375     0.38100
C1368       C  0.90129611  0.23442173  0.40048064     0.36500
C1369       C  0.55440147  0.34996400  0.34863301     0.36500
N1370       N  0.87036577  0.20898810  0.40997432    -0.38300
N1371       N  0.58617675  0.36704036  0.33697524    -0.38300
N1372       N  0.86814637  0.27860158  0.34428003    -0.37700
N1373       N  0.58430777  0.30529784  0.40727223    -0.37700
C1374       C  0.96907871  0.13113706  0.16494383    -0.04400
C1375       C  0.94516743  0.08889372  0.15819584    -0.01500
C1376       C  0.95001336  0.06066559  0.17660070     0.03500
C1377       C  0.97678290  0.07417326  0.20312028    -0.04400
C1378       C  0.50052886  0.11654207  0.20961949    -0.01500
C1379       C  0.49880748  0.14450846  0.18946116     0.03500
C1380       C  0.91439014  0.07410952  0.13318435     0.38100
C1381       C  0.52639130  0.13241232  0.23748839     0.38100
C1382       C  0.52881291  0.18743981  0.19373119     0.36500
C1383       C  0.92515353  0.01756856  0.16946759     0.36500
N1384       N  0.55293313  0.22151815  0.19725112    -0.38300
N1385       N  0.90522744  0.98318006  0.16383954    -0.38300
N1386       N  0.54666572  0.14610435  0.25974299    -0.37700
N1387       N  0.88983669  0.06209757  0.11320139    -0.37700
C1388       C  0.96337267  0.25915756  0.16974454    -0.04400
C1389       C  0.50221317  0.29261421  0.17827981    -0.01500
C1390       C  0.50527738  0.32258839  0.19949278     0.03500
C1391       C  0.96914935  0.31894988  0.21352501    -0.04400
C1392       C  0.92984720  0.28538512  0.20373421    -0.01500
C1393       C  0.92730927  0.25636538  0.18176241     0.03500
C1394       C  0.53946397  0.29581563  0.16552558     0.38100
C1395       C  0.89135333  0.27934794  0.21622013     0.38100
C1396       C  0.88733499  0.22318441  0.17121205     0.36500
C1397       C  0.54625151  0.35681706  0.20654151     0.36500
N1398       N  0.85581424  0.19671988  0.16225790    -0.38300
N1399       N  0.57909604  0.38392026  0.21196660    -0.38300
N1400       N  0.86033704  0.27397287  0.22597368    -0.37700
N1401       N  0.56924888  0.29848125  0.15546530    -0.37700
C1402       C  0.96798772  0.19978598  0.50031444    -0.04400
C1403       C  0.00450495  0.22334276  0.01837495    -0.01500
C1404       C  0.00306422  0.22328496  0.05103419     0.03500
C1405       C  0.96528665  0.19874657  0.06591419    -0.04400
C1406       C  0.92882081  0.17479929  0.04789425    -0.01500
C1407       C  0.93008422  0.17562766  0.01519436     0.03500
C1408       C  0.04383402  0.24682183  0.50326175     0.38100
C1409       C  0.89000830  0.14928253  0.06311602     0.38100
C1410       C  0.89240797  0.15171056  0.99684223     0.36500
C1411       C  0.04058024  0.24810989  0.06936664     0.36500
N1412       N  0.86229863  0.13267965  0.48221598    -0.38300
N1413       N  0.57052183  0.26804756  0.08394389    -0.38300
N1414       N  0.85919996  0.12887640  0.07541942    -0.37700
N1415       N  0.07516230  0.26524605  0.49109824    -0.37700
C1416       C  0.79654427  0.49298323  0.40082153    -0.04400
C1417       C  0.83987581  0.51298490  0.40535213    -0.01500
C1418       C  0.86398482  0.50536860  0.38442556     0.03500
C1419       C  0.84568658  0.48314766  0.35662050    -0.04400
C1420       C  0.80204639  0.46150305  0.35338638    -0.01500
C1421       C  0.77797269  0.46287021  0.37735589     0.03500
C1422       C  0.85947396  0.54036255  0.43159535     0.38100
C1423       C  0.78148130  0.44047420  0.32473351     0.38100
C1424       C  0.73444800  0.43215384  0.37876816     0.36500
C1425       C  0.90556955  0.51551325  0.39352171     0.36500
N1426       N  0.69989633  0.40738159  0.38020365    -0.38300
N1427       N  0.93764392  0.02152204  0.40231965    -0.38300
N1428       N  0.76447958  0.42425218  0.30184001    -0.37700
N1429       N  0.87529327  0.06207373  0.45262406    -0.39500
C1430       C  0.59404161  0.47799043  0.35887509    -0.04400
C1431       C  0.60084679  0.49518243  0.38903479    -0.01500
C1432       C  0.63914134  0.50871711  0.40497727     0.03500
C1433       C  0.66919762  0.49989323  0.39331923    -0.04400
C1434       C  0.66199362  0.48233774  0.36291040    -0.01500
C1435       C  0.62462386  0.47067972  0.34645101     0.03500
C1436       C  0.56779929  0.49693190  0.40477968     0.38100
C1437       C  0.69340544  0.47895255  0.34606367     0.38100
C1438       C  0.61778051  0.45000121  0.31657813     0.36500
C1439       C  0.64879840  0.53502553  0.43202931     0.36500
N1440       N  0.61264062  0.43335992  0.29297238    -0.38300
N1441       N  0.65654588  0.55630608  0.45341410    -0.38300
N1442       N  0.71747614  0.47725354  0.33054111    -0.37700
N1443       N  0.54099312  0.49703963  0.41776657    -0.37700
C1444       C  0.83202275  0.47829087  0.21656760    -0.04400
C1445       C  0.83926576  0.51497393  0.20236038    -0.01500
C1446       C  0.81290488  0.51403180  0.17797792     0.03500
C1447       C  0.77888062  0.47688377  0.16750738    -0.04400
C1448       C  0.77084482  0.44072135  0.18181605    -0.01500
C1449       C  0.79563287  0.44161008  0.20716589     0.03500
C1450       C  0.87118919  0.05434576  0.21420771     0.38100
C1451       C  0.73545615  0.40250314  0.17128145     0.38100
C1452       C  0.77915650  0.40592040  0.22619029     0.36500
C1453       C  0.81935126  0.05170905  0.16472809     0.36500
N1454       N  0.76403346  0.37764242  0.24163440    -0.38300
N1455       N  0.82437349  0.08167831  0.15419044    -0.38300
N1456       N  0.70730950  0.37208983  0.16281722    -0.37700
N1457       N  0.89598223  0.08603435  0.22367643    -0.37700
C1458       C  0.65060362  0.48442377  0.16273737    -0.04400
C1459       C  0.60900942  0.46703362  0.15182389    -0.01500
C1460       C  0.57902317  0.46832399  0.17066324     0.03500
C1461       C  0.58749050  0.47778192  0.20272347    -0.04400
C1462       C  0.62951545  0.49557147  0.21328204    -0.01500
C1463       C  0.66088368  0.50323479  0.19236385     0.03500
C1464       C  0.59609395  0.44630376  0.12199509     0.38100
C1465       C  0.64220499  0.00758453  0.24529233     0.38100
C1466       C  0.70389808  0.03134670  0.20135366     0.36500
C1467       C  0.54139079  0.46323172  0.15616908     0.36500
N1468       N  0.73800930  0.05381622  0.20858349    -0.38300
N1469       N  0.01254966  0.46120405  0.14391200    -0.38300
N1470       N  0.65412457  0.01830982  0.27041123    -0.37700
N1471       N  0.58551747  0.42945157  0.09828743    -0.37700
C1472       C  0.72597981  0.49137443  0.49848182    -0.04400
C1473       C  0.71377670  0.45462954  0.01383187    -0.01500
C1474       C  0.71227943  0.45358512  0.04642083     0.03500
C1475       C  0.72299060  0.48928833  0.06374758    -0.04400
C1476       C  0.73443864  0.02584465  0.04831372    -0.01500
C1477       C  0.73641992  0.02697556  0.01576359     0.03500
C1478       C  0.70251047  0.41797740  0.49603677     0.38100
C1479       C  0.74423902  0.06226793  0.06592277     0.38100
C1480       C  0.75018101  0.06504084  0.99999133     0.36500
C1481       C  0.69864740  0.41552753  0.06215073     0.36500
N1482       N  0.76127295  0.09534238  0.48728611    -0.38300
N1483       N  0.68766146  0.38521970  0.07478420    -0.38300
N1484       N  0.75170268  0.09123602  0.07995128    -0.37700
N1485       N  0.69350425  0.38873443  0.48181039    -0.37700
C1486       C  0.82722870  0.31098901  0.40445693    -0.04400
C1487       C  0.87067544  0.32953699  0.40881613    -0.01500
C1488       C  0.89762136  0.36269890  0.39019045     0.03500
C1489       C  0.88127831  0.37536773  0.36551597    -0.04400
C1490       C  0.83763435  0.35758141  0.36262551    -0.01500
C1491       C  0.81140606  0.32828458  0.38355898     0.03500
C1492       C  0.88769490  0.31359882  0.43146971     0.38100
C1493       C  0.81796058  0.36703243  0.33762255     0.38100
C1494       C  0.76769392  0.31609319  0.38370099     0.36500
C1495       C  0.94206803  0.38154863  0.39509656     0.36500
N1496       N  0.73313657  0.30714310  0.38381875    -0.38300
N1497       N  0.97751620  0.39653841  0.39917711    -0.38300
N1498       N  0.79885175  0.37169693  0.31843918    -0.37700
N1499       N  0.90125314  0.30093674  0.44964398    -0.37700
C1500       C  0.64270988  0.12130761  0.34634010    -0.04400
C1501       C  0.63941013  0.15379729  0.35988400    -0.01500
C1502       C  0.66796750  0.17903783  0.38325315     0.03500
C1503       C  0.70175101  0.17426496  0.39218151    -0.04400
C1504       C  0.70578624  0.14272192  0.37891886    -0.01500
C1505       C  0.67714282  0.11686085  0.35587153     0.03500
C1506       C  0.60775682  0.16287658  0.34951326     0.38100
C1507       C  0.73970292  0.13684806  0.38917514     0.38100
C1508       C  0.68592461  0.08801650  0.34073873     0.36500
C1509       C  0.66214942  0.20975040  0.39862533     0.36500
N1510       N  0.69427453  0.06589607  0.32876857    -0.38300
N1511       N  0.65687331  0.23370933  0.41108503    -0.38300
N1512       N  0.76647019  0.13187814  0.39749113    -0.37700
N1513       N  0.58304447  0.17083643  0.34121181    -0.37700
C1514       C  0.87166899  0.36528108  0.20500151    -0.04400
C1515       C  0.88470753  0.35485501  0.17753856    -0.01500
C1516       C  0.85547523  0.32351284  0.15743995     0.03500
C1517       C  0.81244297  0.30514269  0.16289991    -0.04400
C1518       C  0.79976864  0.31853925  0.18879528    -0.01500
C1519       C  0.82902828  0.34342710  0.21152982     0.03500
C1520       C  0.92839068  0.37105356  0.17252181     0.38100
C1521       C  0.75632968  0.30561610  0.19285499     0.38100
C1522       C  0.81540811  0.33834904  0.24300946     0.36500
C1523       C  0.87019144  0.30845987  0.13264499     0.36500
N1524       N  0.80372426  0.33101237  0.26799859    -0.38300
N1525       N  0.88215975  0.29651331  0.11299282    -0.38300
N1526       N  0.72170563  0.29532570  0.19594301    -0.37700
N1527       N  0.96302523  0.38233165  0.16862704    -0.37700
C1528       C  0.69220336  0.16308252  0.16614525    -0.04400
C1529       C  0.70545752  0.15123898  0.19302466    -0.01500
C1530       C  0.67656747  0.12595883  0.21486684     0.03500
C1531       C  0.63350144  0.10931786  0.20916251    -0.04400
C1532       C  0.62004761  0.11712886  0.18057154    -0.01500
C1533       C  0.64907084  0.14496964  0.15969668     0.03500
C1534       C  0.74915251  0.16551939  0.19870330     0.38100
C1535       C  0.57661307  0.09473188  0.17151293     0.38100
C1536       C  0.63408896  0.15577648  0.13219624     0.36500
C1537       C  0.69189219  0.11904380  0.24397376     0.36500
N1538       N  0.62188827  0.16412419  0.11025304    -0.38300
N1539       N  0.70474238  0.11408789  0.26708639    -0.38300
N1540       N  0.54241181  0.07635842  0.16304448    -0.37700
N1541       N  0.78391516  0.17709772  0.20367470    -0.37700
C1542       C  0.75217652  0.22628873  0.06344112    -0.04400
C1543       C  0.77844178  0.21498753  0.04871451    -0.01500
C1544       C  0.78191656  0.21713673  0.01624754     0.03500
C1545       C  0.75846380  0.22977962  0.49843678    -0.04400
C1546       C  0.73158372  0.24027732  0.01312332    -0.01500
C1547       C  0.72850094  0.23860720  0.04559296     0.03500
C1548       C  0.80224310  0.20168771  0.06707141     0.38100
C1549       C  0.70811444  0.25408006  0.49486907     0.38100
C1550       C  0.70151547  0.25022392  0.06074826     0.36500
C1551       C  0.81027831  0.20730257  0.00115811     0.36500
N1552       N  0.68002345  0.25951440  0.07285875    -0.38300
N1553       N  0.83308352  0.19981929  0.48901243    -0.38300
N1554       N  0.68955592  0.26528994  0.48034696    -0.37700
N1555       N  0.82109969  0.19099792  0.08179320    -0.37700
C1556       C  0.72342022  0.19727202  0.64703795     0.04100
C1557       C  0.75262219  0.23362633  0.66200102    -0.12100
C1558       C  0.78115400  0.26761814  0.64544574     0.01600
C1559       C  0.77981611  0.26494080  0.61303616    -0.10600
C1560       C  0.75197863  0.22841969  0.59766184     0.04100
C1561       C  0.72409295  0.19456879  0.61460186    -0.10000
H1562       H  0.75303432  0.23548793  0.68702450     0.09700
H1563       H  0.80052478  0.29107622  0.59966378     0.07200
H1564       H  0.70292223  0.16646657  0.60249309     0.07000
C1565       C  0.73518166  0.20497829  0.91299385     0.04100
C1566       C  0.73264254  0.20144889  0.94519979    -0.12100
C1567       C  0.76251486  0.23270045  0.96440530     0.01600
C1568       C  0.79458019  0.26797545  0.95138453    -0.10600
C1569       C  0.79749092  0.27177134  0.91913002     0.04100
C1570       C  0.76826085  0.23943566  0.90015726    -0.10000
H1571       H  0.70702390  0.17497036  0.95529709     0.09700
H1572       H  0.81608096  0.29292324  0.96635894     0.07200
H1573       H  0.76987635  0.24213080  0.87518469     0.07000
C1574       C  0.74635205  0.47703910  0.64723161     0.04100
C1575       C  0.71116492  0.47324185  0.66120209    -0.12100
C1576       C  0.68342881  0.48171704  0.64500931     0.01600
C1577       C  0.68900225  0.48927923  0.61313134    -0.10600
C1578       C  0.72129634  0.48781540  0.59801467     0.04100
C1579       C  0.75101015  0.48338899  0.61534489    -0.10000
H1580       H  0.70687500  0.46603717  0.68557433     0.09700
H1581       H  0.66851284  0.49622817  0.59989101     0.07200
H1582       H  0.77732528  0.48464257  0.60407189     0.07000
C1583       C  0.76943078  0.50326208  0.91884552     0.04100
C1584       C  0.76340648  0.49501859  0.95034400    -0.12100
C1585       C  0.72912106  0.49336178  0.96435155     0.01600
C1586       C  0.69822485  0.49437330  0.94593606    -0.10600
C1587       C  0.70448873  0.50416799  0.91421829     0.04100
C1588       C  0.74312833  0.51342631  0.90242443    -0.10000
H1589       H  0.78456364  0.48905486  0.96373907     0.09700
H1590       H  0.66932457  0.48685415  0.95664344     0.07200
H1591       H  0.75178394  0.52513609  0.87946102     0.07000
C1592       C  0.96080540  0.22531226  0.65026777     0.04100
C1593       C  0.96299945  0.22770333  0.61787445    -0.12100
C1594       C  0.96404180  0.19696099  0.60034295     0.01600
C1595       C  0.96493832  0.16479620  0.61547716    -0.10600
C1596       C  0.96267918  0.16195159  0.64789125     0.04100
C1597       C  0.95864557  0.19152126  0.66482258    -0.10000
H1598       H  0.96413682  0.25343761  0.60638062     0.09700
H1599       H  0.96855559  0.14274598  0.60198780     0.07200
H1600       H  0.95645420  0.18961595  0.68981134     0.07000
C1601       C  0.97698522  0.23620296  0.91766082     0.04100
C1602       C  0.98284059  0.20721601  0.90209913    -0.12100
C1603       C  0.97966684  0.17332094  0.91734294     0.01600
C1604       C  0.97315343  0.17022645  0.94947226    -0.10600
C1605       C  0.96989899  0.20061971  0.96585847     0.04100
C1606       C  0.97092953  0.23313090  0.94970906    -0.10000
H1607       H  0.98894119  0.21066351  0.87753314     0.09700
H1608       H  0.97100646  0.14457383  0.96178642     0.07200
H1609       H  0.96774109  0.25621087  0.96209287     0.07000
O1610       O  0.89017863  0.01121260  0.75256823    -0.87200
C1611       C  0.61088596  0.09230913  0.82267202     1.12800
O1612       O  0.94062154  0.47567823  0.78332214    -1.35100
O1613       O  0.57455123  0.09129483  0.74057373    -0.88700
O1614       O  0.85675096  0.44385952  0.74946026    -0.89400
O1615       O  0.93420476  0.42790766  0.71852035    -0.78200
O1616       O  0.98313703  0.05252513  0.75255350    -1.00300
C1617       C  0.55385318  0.47056527  0.72492019     1.22800
O1618       O  0.97969968  0.43002278  0.78326267    -1.35200
Mn1619     Mn  0.98477306  0.47605821  0.81645837     1.82100
O1620       O  0.52087490  0.46951299  0.71664237    -0.77300
O1621       O  0.60940731  0.05857663  0.74725771    -0.86700
C1622       C  0.55868611  0.47288892  0.83839384     1.13900
C1623       C  0.60347706  0.08451591  0.73342966     1.08700
O1624       O  0.94229379  0.43635105  0.84904833    -0.78200
O1625       O  0.52649919  0.01493926  0.78120766    -1.31900
O1626       O  0.90036470  0.39665163  0.81412080    -0.97400
C1627       C  0.97257246  0.34911717  0.73849226     1.07400
Mn1628     Mn  0.58303864  0.01488023  0.78157650     1.48600
O1629       O  0.93972028  0.34527697  0.75014910    -0.86600
Mn1630     Mn  0.88100328  0.42311773  0.78433325     1.49600
O1631       O  0.90107853  0.01540815  0.82179902    -0.90500
C1632       C  0.97910516  0.04489461  0.72497202     1.20600
C1633       C  0.87137358  0.48222882  0.83110615     1.12600
Mn1634     Mn  0.97988186  0.47164146  0.74888211     1.81000
O1635       O  0.56058718  0.47028502  0.81049380    -0.95700
Mn1636     Mn  0.94064559  0.03157346  0.78403551     1.49300
C1637       C  0.86137495  0.47784498  0.74109263     1.09100
Mn1638     Mn  0.53264919  0.42345788  0.78206968     1.49900
C1639       C  0.97848188  0.35260611  0.82847711     1.12000
O1640       O  0.89695178  0.39321091  0.75536989    -1.01500
O1641       O  0.61060581  0.05967533  0.81604035    -0.91100
C1642       C  0.90218251  0.39699912  0.72746767     1.23300
O1643       O  0.55941756  0.46875111  0.75261805    -1.01900
O1644       O  0.58524610  0.10093135  0.80986320    -0.89300
O1645       O  0.51269468  0.37932795  0.81721231    -0.88900
O1646       O  0.86136437  0.44822363  0.81867752    -0.88900
Mn1647     Mn  0.53403098  0.07372719  0.77833092     1.47900
O1648       O  0.52862318  0.47554290  0.84790329    -0.77400
C1649       C  0.90906956  0.40440187  0.84171770     1.16400
O1650       O  0.97781172  0.01262831  0.71648626    -0.76100
O1651       O  0.99095139  0.02336267  0.84743115    -0.75700
Mn1652     Mn  0.92311547  0.37335935  0.78474895     1.51100
O1653       O  0.50824136  0.37722149  0.74776988    -0.88100
O1654       O  0.99156933  0.05828700  0.80969149    -0.95600
O1655       O  0.94424834  0.34908088  0.81924353    -0.90600
C1656       C  0.99345235  0.05561920  0.83758034     1.14200
C1657       C  0.99220941  0.08710615  0.85816029    -0.04400
C1658       C  0.01490934  0.10049278  0.88661312    -0.01500
C1659       C  0.01125728  0.12873786  0.90607879     0.03500
C1660       C  0.98230087  0.14130796  0.89861304    -0.04400
C1661       C  0.95872817  0.12670269  0.87074286    -0.01500
C1662       C  0.96700898  0.10381849  0.84938546     0.03500
C1663       C  0.54508242  0.08857715  0.89455798     0.38100
C1664       C  0.92517740  0.13468395  0.86394328     0.38100
C1665       C  0.95128632  0.10031289  0.81785846     0.36500
C1666       C  0.53878549  0.14632998  0.93289548     0.36500
N1667       N  0.93916336  0.09878040  0.79274437    -0.38300
N1668       N  0.56089900  0.16061618  0.95419801    -0.38300
N1669       N  0.89834266  0.14084294  0.85853515    -0.37700
N1670       N  0.57030059  0.08058284  0.90110894    -0.37700
C1671       C  0.97755003  0.26950069  0.89924126    -0.04400
C1672       C  0.51510200  0.29970731  0.88727809    -0.01500
C1673       C  0.51550133  0.32562310  0.86380307     0.03500
C1674       C  0.97814322  0.32390776  0.85318860    -0.04400
C1675       C  0.94014807  0.29298484  0.86579924    -0.01500
C1676       C  0.94016888  0.26644642  0.88868986     0.03500
C1677       C  0.55366741  0.30285672  0.89839081     0.38100
C1678       C  0.90021812  0.28536969  0.85383899     0.38100
C1679       C  0.90129348  0.23442733  0.90048062     0.36500
C1680       C  0.55439774  0.34995021  0.84862421     0.36500
N1681       N  0.87036246  0.20899672  0.90997579    -0.38300
N1682       N  0.58617111  0.36702074  0.83696310    -0.38300
N1683       N  0.86814709  0.27860287  0.84427409    -0.37700
N1684       N  0.58430015  0.30528273  0.90726538    -0.37700
C1685       C  0.96907765  0.13113796  0.66494452    -0.04400
C1686       C  0.94516556  0.08889421  0.65819876    -0.01500
C1687       C  0.95001315  0.06066768  0.67660447     0.03500
C1688       C  0.97678495  0.07417764  0.70312291    -0.04400
C1689       C  0.50053205  0.11654631  0.70961886    -0.01500
C1690       C  0.49880980  0.14451095  0.68945914     0.03500
C1691       C  0.91438697  0.07410827  0.63318808     0.38100
C1692       C  0.52639746  0.13241882  0.73748611     0.38100
C1693       C  0.52881857  0.18744212  0.69372437     0.36500
C1694       C  0.92515380  0.01757024  0.66947292     0.36500
N1695       N  0.55294192  0.22152032  0.69723971    -0.38300
N1696       N  0.90522824  0.98318141  0.66384585    -0.38300
N1697       N  0.54667430  0.14611284  0.75973940    -0.37700
N1698       N  0.88983262  0.06209512  0.61320572    -0.37700
C1699       C  0.96337410  0.25915970  0.66974279    -0.04400
C1700       C  0.50221611  0.29261697  0.67827744    -0.01500
C1701       C  0.50528093  0.32259180  0.69949003     0.03500
C1702       C  0.96915267  0.31895357  0.71352269    -0.04400
C1703       C  0.92985015  0.28538785  0.70373353    -0.01500
C1704       C  0.92731129  0.25636759  0.68176181     0.03500
C1705       C  0.53946652  0.29581824  0.66552273     0.38100
C1706       C  0.89135689  0.27935005  0.71622123     0.38100
C1707       C  0.88733669  0.22318617  0.67121253     0.36500
C1708       C  0.54625490  0.35682157  0.70653713     0.36500
N1709       N  0.85581584  0.19672128  0.66225890    -0.38300
N1710       N  0.57909923  0.38392571  0.71196107    -0.38300
N1711       N  0.86034118  0.27397464  0.72597624    -0.37700
N1712       N  0.56925133  0.29848401  0.65546210    -0.37700
C1713       C  0.96797834  0.19978693  0.00031470    -0.04400
C1714       C  0.00451443  0.22333416  0.51837635    -0.01500
C1715       C  0.00307045  0.22327756  0.55103542     0.03500
C1716       C  0.96528971  0.19874583  0.56591360    -0.04400
C1717       C  0.92882417  0.17480392  0.54789192    -0.01500
C1718       C  0.93009056  0.17563348  0.51519215     0.03500
C1719       C  0.04382150  0.24683963  0.00325835     0.38100
C1720       C  0.89000925  0.14929027  0.56311167     0.38100
C1721       C  0.89241439  0.15172407  0.49683807     0.36500
C1722       C  0.04058614  0.24809700  0.56936969     0.36500
N1723       N  0.86229204  0.13265992  0.98222174    -0.38300
N1724       N  0.57052928  0.26803023  0.58394927    -0.38300
N1725       N  0.85919894  0.12888587  0.57541330    -0.37700
N1726       N  0.07514724  0.26527157  0.99109300    -0.37700
C1727       C  0.79654289  0.49296661  0.90082728    -0.04400
C1728       C  0.83987458  0.51297267  0.90535789    -0.01500
C1729       C  0.86398634  0.50536211  0.88442993     0.03500
C1730       C  0.84568998  0.48314364  0.85662358    -0.04400
C1731       C  0.80204966  0.46149412  0.85338994    -0.01500
C1732       C  0.77797444  0.46285448  0.87736100     0.03500
C1733       C  0.85947002  0.54034850  0.93160248     0.38100
C1734       C  0.78148553  0.44046751  0.82473616     0.38100
C1735       C  0.73445164  0.43213293  0.87877392     0.36500
C1736       C  0.90557151  0.51550851  0.89352618     0.36500
N1737       N  0.69990152  0.40735680  0.88021013    -0.38300
N1738       N  0.93764587  0.02151684  0.90232429    -0.38300
N1739       N  0.76448488  0.42424727  0.80184188    -0.37700
N1740       N  0.87528729  0.06205795  0.95263177    -0.39500
C1741       C  0.59404264  0.47798597  0.85887651    -0.04400
C1742       C  0.60084848  0.49517663  0.88903680    -0.01500
C1743       C  0.63914063  0.50870362  0.90498096     0.03500
C1744       C  0.66919321  0.49987429  0.89332320    -0.04400
C1745       C  0.66198810  0.48231945  0.86291425    -0.01500
C1746       C  0.62462113  0.47066904  0.84645337     0.03500
C1747       C  0.56780360  0.49693213  0.90478061     0.38100
C1748       C  0.69339596  0.47892493  0.84606979     0.38100
C1749       C  0.61777640  0.44999169  0.81657988     0.36500
C1750       C  0.64879909  0.53500857  0.93203535     0.36500
N1751       N  0.61263558  0.43335197  0.79297331    -0.38300
N1752       N  0.65654787  0.55628611  0.95342222    -0.38300
N1753       N  0.71746357  0.47721874  0.83054836    -0.37700
N1754       N  0.54099924  0.49704422  0.91776685    -0.37700
C1755       C  0.83203482  0.47830423  0.71656639    -0.04400
C1756       C  0.83927835  0.51499058  0.70236437    -0.01500
C1757       C  0.81292079  0.51405344  0.67798121     0.03500
C1758       C  0.77890091  0.47690702  0.66750326    -0.04400
C1759       C  0.77086635  0.44074101  0.68180514    -0.01500
C1760       C  0.79564895  0.44162460  0.70715711     0.03500
C1761       C  0.87119890  0.05435916  0.71421696     0.38100
C1762       C  0.73548417  0.40252390  0.67126122     0.38100
C1763       C  0.77916950  0.40593040  0.72617653     0.36500
C1764       C  0.81936521  0.05173216  0.66473800     0.36500
N1765       N  0.76404421  0.37764943  0.74161742    -0.38300
N1766       N  0.82438655  0.08170372  0.65420554    -0.38300
N1767       N  0.70734301  0.37211148  0.66278909    -0.37700
N1768       N  0.89599046  0.08604629  0.72368921    -0.37700
C1769       C  0.65061916  0.48444025  0.66273900    -0.04400
C1770       C  0.60902526  0.46704879  0.65182427    -0.01500
C1771       C  0.57903568  0.46833319  0.67066375     0.03500
C1772       C  0.58750011  0.47778844  0.70272457    -0.04400
C1773       C  0.62952436  0.49557748  0.71328491    -0.01500
C1774       C  0.66089529  0.50324514  0.69236783     0.03500
C1775       C  0.59611365  0.44632395  0.62199341     0.38100
C1776       C  0.64221041  0.00758623  0.74529630     0.38100
C1777       C  0.70390849  0.03135488  0.70136129     0.36500
C1778       C  0.54140157  0.46323599  0.65616924     0.36500
N1779       N  0.73801889  0.05382305  0.70859417    -0.38300
N1780       N  0.01255954  0.46120611  0.64391136    -0.38300
N1781       N  0.65412665  0.01830749  0.77041637    -0.37700
N1782       N  0.58554059  0.42947607  0.59828393    -0.37700
C1783       C  0.72596934  0.49134676  0.99848482    -0.04400
C1784       C  0.71379616  0.45465941  0.51382958    -0.01500
C1785       C  0.71230244  0.45361597  0.54641879     0.03500
C1786       C  0.72300776  0.48931791  0.56374549    -0.04400
C1787       C  0.73444528  0.02587018  0.54831103    -0.01500
C1788       C  0.73642327  0.02700039  0.51576059     0.03500
C1789       C  0.70248620  0.41794664  0.99603874     0.38100
C1790       C  0.74423955  0.06229194  0.56591967     0.38100
C1791       C  0.75017524  0.06506380  0.49998780     0.36500
C1792       C  0.69867992  0.41556020  0.56214896     0.36500
N1793       N  0.76128591  0.09532105  0.98729032    -0.38300
N1794       N  0.68770182  0.38525368  0.57478249    -0.38300
N1795       N  0.75169812  0.09125869  0.57994793    -0.37700
N1796       N  0.69347629  0.38870283  0.98181230    -0.37700
C1797       C  0.82723557  0.31098681  0.90445418    -0.04400
C1798       C  0.87068249  0.32953713  0.90881392    -0.01500
C1799       C  0.89762754  0.36269891  0.89018782     0.03500
C1800       C  0.88128365  0.37536711  0.86551351    -0.04400
C1801       C  0.83763964  0.35757880  0.86262250    -0.01500
C1802       C  0.81141160  0.32828015  0.88355504     0.03500
C1803       C  0.88770332  0.31360175  0.93146877     0.38100
C1804       C  0.81796602  0.36703062  0.83761999     0.38100
C1805       C  0.76769845  0.31608512  0.88369498     0.36500
C1806       C  0.94207438  0.38154882  0.89509315     0.36500
N1807       N  0.73314016  0.30713204  0.88381072    -0.38300
N1808       N  0.97752263  0.39653824  0.89917300    -0.38300
N1809       N  0.79885792  0.37169611  0.81843664    -0.37700
N1810       N  0.90126261  0.30094211  0.94964425    -0.37700
C1811       C  0.64271316  0.12130634  0.84634480    -0.04400
C1812       C  0.63941380  0.15379497  0.85989117    -0.01500
C1813       C  0.66797299  0.17903486  0.88325967     0.03500
C1814       C  0.70175746  0.17426200  0.89218509    -0.04400
C1815       C  0.70579111  0.14271879  0.87892109    -0.01500
C1816       C  0.67714600  0.11685835  0.85587446     0.03500
C1817       C  0.60775898  0.16287381  0.84952367     0.38100
C1818       C  0.73970804  0.13684412  0.88917519     0.38100
C1819       C  0.68592535  0.08801239  0.84074133     0.36500
C1820       C  0.66215625  0.20974713  0.89863381     0.36500
N1821       N  0.69427313  0.06589017  0.82877155    -0.38300
N1822       N  0.65688123  0.23370601  0.91109476    -0.38300
N1823       N  0.76647548  0.13187342  0.89748934    -0.37700
N1824       N  0.58304539  0.17083334  0.84122497    -0.37700
C1825       C  0.87167684  0.36528860  0.70499968    -0.04400
C1826       C  0.88471545  0.35486114  0.67753741    -0.01500
C1827       C  0.85548289  0.32351834  0.65743927     0.03500
C1828       C  0.81245074  0.30514979  0.66289874    -0.04400
C1829       C  0.79977660  0.31854756  0.68879340    -0.01500
C1830       C  0.82903616  0.34343491  0.71152798     0.03500
C1831       C  0.92839857  0.37105863  0.67252133     0.38100
C1832       C  0.75633759  0.30562437  0.69285312     0.38100
C1833       C  0.81541600  0.33835431  0.74300767     0.36500
C1834       C  0.87019825  0.30846261  0.63264571     0.36500
N1835       N  0.80373151  0.33101471  0.76799645    -0.38300
N1836       N  0.88216579  0.29651348  0.61299480    -0.38300
N1837       N  0.72171350  0.29533373  0.69594116    -0.37700
N1838       N  0.96303315  0.38233609  0.66862726    -0.37700
C1839       C  0.69220757  0.16309309  0.66614880    -0.04400
C1840       C  0.70546221  0.15124624  0.69302625    -0.01500
C1841       C  0.67657277  0.12596508  0.71486849     0.03500
C1842       C  0.63350666  0.10932520  0.70916543    -0.04400
C1843       C  0.62005226  0.11714071  0.68057648    -0.01500
C1844       C  0.64907495  0.14498437  0.65970288     0.03500
C1845       C  0.74915697  0.16552438  0.69870306     0.38100
C1846       C  0.57661778  0.09474481  0.67151785     0.38100
C1847       C  0.63409250  0.15579991  0.63220724     0.36500
C1848       C  0.69189815  0.11904804  0.74397435     0.36500
N1849       N  0.62189155  0.16415549  0.61026828    -0.38300
N1850       N  0.70474852  0.11409041  0.76708625    -0.38300
N1851       N  0.54241681  0.07637196  0.66304864    -0.37700
N1852       N  0.78391952  0.17710089  0.70367317    -0.37700
C1853       C  0.75217095  0.22629502  0.56344149    -0.04400
C1854       C  0.77843032  0.21498797  0.54871276    -0.01500
C1855       C  0.78189954  0.21713314  0.51624538     0.03500
C1856       C  0.75847910  0.22977967  0.99843722    -0.04400
C1857       C  0.73157316  0.24028200  0.51312482    -0.01500
C1858       C  0.72849553  0.23861536  0.54559497     0.03500
C1859       C  0.80223236  0.20168738  0.56706789     0.38100
C1860       C  0.70812628  0.25407559  0.99486629     0.38100
C1861       C  0.70151584  0.25023778  0.56075243     0.36500
C1862       C  0.81025349  0.20729045  0.50115338     0.36500
N1863       N  0.68002849  0.25953290  0.57286461    -0.38300
N1864       N  0.83311530  0.19983879  0.98901978    -0.38300
N1865       N  0.68956916  0.26528638  0.98034348    -0.37700
N1866       N  0.82108995  0.19099739  0.58178822    -0.37700
C1867       C  0.72341583  0.69726335  0.14703496     0.04100
C1868       C  0.75261450  0.73361805  0.16199975    -0.12100
C1869       C  0.78114810  0.76761112  0.14544640     0.01600
C1870       C  0.77981359  0.76493508  0.11303680    -0.10600
C1871       C  0.75198012  0.72841383  0.09766094     0.04100
C1872       C  0.72409363  0.69456137  0.11459912    -0.10000
H1873       H  0.75302352  0.73547832  0.18702316     0.09700
H1874       H  0.80052253  0.79107152  0.09966545     0.07200
H1875       H  0.70292659  0.66645895  0.10248908     0.07000
C1876       C  0.73517524  0.70498021  0.41299204     0.04100
C1877       C  0.73263189  0.70145188  0.44519803    -0.12100
C1878       C  0.76250316  0.73270310  0.46440442     0.01600
C1879       C  0.79457174  0.76797668  0.45138447    -0.10600
C1880       C  0.79748614  0.77177181  0.41913011     0.04100
C1881       C  0.76825697  0.73943669  0.40015653    -0.10000
H1882       H  0.70701156  0.67497403  0.45529454     0.09700
H1883       H  0.81607272  0.79292389  0.46635921     0.07200
H1884       H  0.76987518  0.74213187  0.37518402     0.07000
C1885       C  0.74633733  0.97702186  0.14723592     0.04100
C1886       C  0.71115106  0.97322779  0.16120552    -0.12100
C1887       C  0.68341540  0.98170175  0.14501064     0.01600
C1888       C  0.68898830  0.98925960  0.11313230    -0.10600
C1889       C  0.72128162  0.98779288  0.09801726     0.04100
C1890       C  0.75099488  0.98336739  0.11534882    -0.10000
H1891       H  0.70686179  0.96602716  0.18557847     0.09700
H1892       H  0.66849953  0.99620804  0.09989056     0.07200
H1893       H  0.77730955  0.98461894  0.10407662     0.07000
C1894       C  0.76943536  0.00327762  0.41884063     0.04100
C1895       C  0.76341417  0.99503862  0.45034000    -0.12100
C1896       C  0.72913053  0.99338452  0.46434864     0.01600
C1897       C  0.69823240  0.99439308  0.44593329    -0.10600
C1898       C  0.70449313  0.00418312  0.41421441     0.04100
C1899       C  0.74313202  0.01344067  0.40241964    -0.10000
H1900       H  0.78457232  0.98907619  0.46373499     0.09700
H1901       H  0.66933294  0.98687452  0.45664164     0.07200
H1902       H  0.75178663  0.02514890  0.37945580     0.07000
C1903       C  0.96080639  0.72531290  0.15026868     0.04100
C1904       C  0.96300068  0.72770507  0.11787553    -0.12100
C1905       C  0.96404441  0.69696397  0.10034353     0.01600
C1906       C  0.96494310  0.66479986  0.11547710    -0.10600
C1907       C  0.96268320  0.66195387  0.14789113     0.04100
C1908       C  0.95864732  0.69152191  0.16482289    -0.10000
H1909       H  0.96413659  0.75343901  0.10638217     0.09700
H1910       H  0.96856143  0.64275070  0.10198717     0.07200
H1911       H  0.95645431  0.68961531  0.18981148     0.07000
C1912       C  0.97698809  0.73620346  0.41766236     0.04100
C1913       C  0.98284518  0.70721889  0.40209862    -0.12100
C1914       C  0.97967531  0.67332450  0.41734115     0.01600
C1915       C  0.97316514  0.67022915  0.44947085    -0.10600
C1916       C  0.96990919  0.70062045  0.46585854     0.04100
C1917       C  0.97093549  0.73313052  0.44971078    -0.10000
H1918       H  0.98894348  0.71066733  0.37753233     0.09700
H1919       H  0.97102053  0.64457684  0.46178397     0.07200
H1920       H  0.96774571  0.75620882  0.46209593     0.07000
O1921       O  0.89016825  0.51120400  0.25256386    -0.87200
C1922       C  0.61088296  0.59230916  0.32266823     1.12800
O1923       O  0.94061954  0.97567491  0.28332165    -1.35100
O1924       O  0.57454496  0.59129041  0.24057026    -0.88700
O1925       O  0.85674811  0.94385407  0.24946095    -0.89400
O1926       O  0.93420007  0.92790052  0.21852159    -0.78200
O1927       O  0.98312810  0.55251717  0.25255035    -1.00300
C1928       C  0.55384598  0.97055974  0.22492023     1.22800
O1929       O  0.97969807  0.93002002  0.28326358    -1.35200
Mn1930     Mn  0.98477217  0.97605663  0.31645778     1.82100
O1931       O  0.52086641  0.96950468  0.21664249    -0.77300
O1932       O  0.60940063  0.55857218  0.24725512    -0.86700
C1933       C  0.55868172  0.97288601  0.33839339     1.13900
C1934       C  0.60347054  0.58451097  0.23342644     1.08700
O1935       O  0.94229346  0.93635110  0.34904932    -0.78200
O1936       O  0.52649376  0.51493602  0.28120635    -1.31900
O1937       O  0.90036364  0.89665059  0.31412277    -0.97400
C1938       C  0.97257136  0.84911374  0.23849578     1.07400
Mn1939     Mn  0.58303361  0.51487776  0.28157481     1.48600
O1940       O  0.93971916  0.84527274  0.25015335    -0.86600
Mn1941     Mn  0.88100127  0.92311460  0.28433443     1.49600
O1942       O  0.90106927  0.51540585  0.32179402    -0.90500
C1943       C  0.97909726  0.54488771  0.22496899     1.20600
C1944       C  0.87137314  0.98223008  0.33110422     1.12600
Mn1945     Mn  0.97987852  0.97163627  0.24888170     1.81000
O1946       O  0.56058203  0.97028133  0.31049349    -0.95700
Mn1947     Mn  0.94063619  0.53156777  0.28403147     1.49300
C1948       C  0.86137117  0.97783874  0.24109238     1.09100
Mn1949     Mn  0.53264351  0.92345410  0.28206995     1.49900
C1950       C  0.97848364  0.85260960  0.32848303     1.12000
O1951       O  0.89694823  0.89320508  0.25537207    -1.01500
O1952       O  0.61060295  0.55967508  0.31603753    -0.91100
C1953       C  0.90217824  0.89699206  0.22746968     1.23300
O1954       O  0.55941150  0.96874659  0.25261800    -1.01900
O1955       O  0.58524183  0.60092985  0.30985961    -0.89300
O1956       O  0.51269034  0.87932516  0.31721276    -0.88900
O1957       O  0.86136350  0.94822370  0.31867746    -0.88900
Mn1958     Mn  0.53402556  0.57372374  0.27832833     1.47900
O1959       O  0.52861878  0.97553998  0.34790296    -0.77400
C1960       C  0.90906856  0.90440204  0.34171947     1.16400
O1961       O  0.97780168  0.51262036  0.21648353    -0.76100
O1962       O  0.99094365  0.52335973  0.34742813    -0.75700
Mn1963     Mn  0.92311430  0.87335677  0.28475221     1.51100
O1964       O  0.50823507  0.87721844  0.24777056    -0.88100
O1965       O  0.99156037  0.55828276  0.30968761    -0.95600
O1966       O  0.94424980  0.84908326  0.31924890    -0.90600
C1967       C  0.99344469  0.55561591  0.33757647     1.14200
C1968       C  0.99220643  0.58710521  0.35815608    -0.04400
C1969       C  0.01491109  0.60049329  0.38660683    -0.01500
C1970       C  0.01126400  0.62874102  0.40607268     0.03500
C1971       C  0.98230733  0.64131173  0.39860963    -0.04400
C1972       C  0.95872981  0.62670487  0.37074157    -0.01500
C1973       C  0.96700587  0.60381809  0.34938335     0.03500
C1974       C  0.54508678  0.58857770  0.39455122     0.38100
C1975       C  0.92517792  0.63468569  0.36394571     0.38100
C1976       C  0.95127703  0.60030904  0.31785790     0.36500
C1977       C  0.53879945  0.64633591  0.43288911     0.36500
N1978       N  0.93914880  0.59877338  0.29274504    -0.38300
N1979       N  0.56091626  0.66062260  0.45418991    -0.38300
N1980       N  0.89834209  0.64084410  0.35854067    -0.37700
N1981       N  0.57030400  0.58058131  0.40110014    -0.37700
C1982       C  0.97755009  0.76950145  0.39924549    -0.04400
C1983       C  0.51510591  0.79971469  0.38728328    -0.01500
C1984       C  0.51550269  0.82562862  0.36380778     0.03500
C1985       C  0.97814535  0.82391420  0.35319721    -0.04400
C1986       C  0.94014871  0.79298271  0.36580027    -0.01500
C1987       C  0.94016850  0.76644095  0.38868827     0.03500
C1988       C  0.55367323  0.80287101  0.39839911     0.38100
C1989       C  0.90021918  0.78536549  0.35383726     0.38100
C1990       C  0.90129249  0.73441358  0.40047159     0.36500
C1991       C  0.55439917  0.84995863  0.34862988     0.36500
N1992       N  0.87036123  0.70897628  0.40996111    -0.38300
N1993       N  0.58617306  0.86703107  0.33696977    -0.38300
N1994       N  0.86814844  0.77859777  0.34427098    -0.37700
N1995       N  0.58430770  0.80530329  0.40727659    -0.37700
C1996       C  0.96908000  0.63113875  0.16494384    -0.04400
C1997       C  0.94516929  0.58889562  0.15819484    -0.01500
C1998       C  0.95001400  0.56066689  0.17659980     0.03500
C1999       C  0.97678173  0.57417364  0.20312036    -0.04400
C2000       C  0.50052854  0.61654327  0.20962131    -0.01500
C2001       C  0.49880761  0.64451010  0.18946321     0.03500
C2002       C  0.91439356  0.57411213  0.13318228     0.38100
C2003       C  0.52638974  0.63241292  0.23749087     0.38100
C2004       C  0.52881228  0.68744153  0.19373445     0.36500
C2005       C  0.92515454  0.51757009  0.16946576     0.36500
N2006       N  0.55293185  0.72151986  0.19725546    -0.38300
N2007       N  0.90522880  0.48318175  0.16383699    -0.38300
N2008       N  0.54666310  0.64610440  0.25974601    -0.37700
N2009       N  0.88984143  0.56210078  0.11319840    -0.37700
C2010       C  0.96337447  0.75915947  0.16974417    -0.04400
C2011       C  0.50221316  0.79261493  0.17827985    -0.01500
C2012       C  0.50527704  0.82258864  0.19949304     0.03500
C2013       C  0.96915219  0.81895110  0.21352571    -0.04400
C2014       C  0.92984988  0.78538599  0.20373567    -0.01500
C2015       C  0.92731145  0.75636664  0.18176333     0.03500
C2016       C  0.53946423  0.79581625  0.16552622     0.38100
C2017       C  0.89135641  0.77934797  0.21622299     0.38100
C2018       C  0.88733701  0.72318557  0.17121345     0.36500
C2019       C  0.54625129  0.85681643  0.20654305     0.36500
N2020       N  0.85581614  0.69672104  0.16225952    -0.38300
N2021       N  0.57909587  0.88391886  0.21196935    -0.38300
N2022       N  0.86034044  0.77397232  0.22597765    -0.37700
N2023       N  0.56924939  0.79848183  0.15546645    -0.37700
C2024       C  0.96798766  0.69978553  0.50031441    -0.04400
C2025       C  0.00450587  0.72334046  0.01837440    -0.01500
C2026       C  0.00306597  0.72328400  0.05103363     0.03500
C2027       C  0.96528831  0.69874797  0.06591419    -0.04400
C2028       C  0.92882159  0.67480179  0.04789488    -0.01500
C2029       C  0.93008421  0.67562921  0.01519502     0.03500
C2030       C  0.04383495  0.74681695  0.50326024     0.38100
C2031       C  0.89000908  0.64928697  0.06311723     0.38100
C2032       C  0.89240731  0.65171315  0.99684338     0.36500
C2033       C  0.04058275  0.74810816  0.06936547     0.36500
N2034       N  0.86229752  0.63268285  0.48221734    -0.38300
N2035       N  0.57052502  0.76804353  0.08394362    -0.38300
N2036       N  0.85920072  0.62888233  0.07542111    -0.37700
N2037       N  0.07516318  0.76523868  0.49109619    -0.37700
C2038       C  0.79654568  0.99297968  0.40082217    -0.04400
C2039       C  0.83987739  0.01298381  0.40535255    -0.01500
C2040       C  0.86398759  0.00536926  0.38442589     0.03500
C2041       C  0.84569021  0.98314835  0.35662068    -0.04400
C2042       C  0.80205002  0.96150198  0.35338655    -0.01500
C2043       C  0.77797557  0.96286661  0.37735649     0.03500
C2044       C  0.85947474  0.04036255  0.43159534     0.38100
C2045       C  0.78148562  0.94047415  0.32473323     0.38100
C2046       C  0.73445175  0.93214784  0.37876904     0.36500
C2047       C  0.90557269  0.01551547  0.39352219     0.36500
N2048       N  0.69990079  0.90737381  0.38020481    -0.38300
N2049       N  0.93764046  0.52151865  0.40231896    -0.38300
N2050       N  0.76448475  0.92425301  0.30183926    -0.37700
N2051       N  0.87529276  0.56207266  0.45262459    -0.39500
C2052       C  0.59404002  0.97798595  0.35887534    -0.04400
C2053       C  0.60084603  0.99517784  0.38903511    -0.01500
C2054       C  0.63914020  0.00871050  0.40497764     0.03500
C2055       C  0.66919510  0.99988466  0.39331958    -0.04400
C2056       C  0.66198994  0.98232857  0.36291089    -0.01500
C2057       C  0.62462075  0.97067287  0.34645134     0.03500
C2058       C  0.56779967  0.99692946  0.40477993     0.38100
C2059       C  0.69340010  0.97894016  0.34606453     0.38100
C2060       C  0.61777658  0.94999489  0.31657811     0.36500
C2061       C  0.64879866  0.03501929  0.43202962     0.36500
N2062       N  0.61263617  0.93335442  0.29297192    -0.38300
N2063       N  0.65654749  0.05630026  0.45341430    -0.38300
N2064       N  0.71746933  0.97723865  0.33054187    -0.37700
N2065       N  0.54099429  0.99703874  0.41776679    -0.37700
C2066       C  0.83202770  0.97829517  0.21656789    -0.04400
C2067       C  0.83927000  0.01497954  0.20236322    -0.01500
C2068       C  0.81290939  0.01403933  0.17798128     0.03500
C2069       C  0.77888657  0.97689188  0.16750827    -0.04400
C2070       C  0.77085194  0.94072806  0.18181389    -0.01500
C2071       C  0.79563915  0.94161474  0.20716364     0.03500
C2072       C  0.87118556  0.55434093  0.21420308     0.38100
C2073       C  0.73546564  0.90251023  0.17127589     0.38100
C2074       C  0.77916300  0.90592285  0.22618551     0.36500
C2075       C  0.81934767  0.55170043  0.16472197     0.36500
N2076       N  0.76404036  0.87764324  0.24162794    -0.38300
N2077       N  0.82437051  0.58166878  0.15418211    -0.38300
N2078       N  0.70732110  0.87209723  0.16280871    -0.37700
N2079       N  0.89597887  0.58603011  0.22367068    -0.37700
C2080       C  0.65060776  0.98442982  0.16273862    -0.04400
C2081       C  0.60901369  0.96703887  0.15182450    -0.01500
C2082       C  0.57902619  0.96832720  0.17066367     0.03500
C2083       C  0.58749205  0.97778318  0.20272423    -0.04400
C2084       C  0.62951672  0.99557288  0.21328360    -0.01500
C2085       C  0.66088610  0.00323912  0.19236571     0.03500
C2086       C  0.59609956  0.94631021  0.12199521     0.38100
C2087       C  0.64220509  0.50758585  0.24529020     0.38100
C2088       C  0.70389639  0.53134099  0.20135086     0.36500
C2089       C  0.54139395  0.96323474  0.15616912     0.36500
N2090       N  0.73800825  0.55380936  0.20857980    -0.38300
N2091       N  0.01255217  0.96120464  0.14391225    -0.38300
N2092       N  0.65412580  0.51831310  0.27040861    -0.37700
N2093       N  0.58552417  0.92945903  0.09828709    -0.37700
C2094       C  0.72598134  0.99137262  0.49848253    -0.04400
C2095       C  0.71378193  0.95463089  0.01383444    -0.01500
C2096       C  0.71228577  0.95358917  0.04642351     0.03500
C2097       C  0.72299396  0.98929302  0.06374845    -0.04400
C2098       C  0.73443945  0.52584215  0.04831491    -0.01500
C2099       C  0.73642044  0.52697543  0.01576484     0.03500
C2100       C  0.70251853  0.91797688  0.49604128     0.38100
C2101       C  0.74424474  0.56226529  0.06592609     0.38100
C2102       C  0.75018330  0.56504226  0.99999448     0.36500
C2103       C  0.69865780  0.91553353  0.06215537     0.36500
N2104       N  0.76127743  0.59534632  0.48729030    -0.38300
N2105       N  0.68767532  0.88522733  0.07479046    -0.38300
N2106       N  0.75171260  0.59123336  0.07995635    -0.37700
N2107       N  0.69351451  0.88873335  0.48181643    -0.37700
C2108       C  0.82723242  0.81098710  0.40445503    -0.04400
C2109       C  0.87067917  0.82953485  0.40881393    -0.01500
C2110       C  0.89762505  0.86269816  0.39018933     0.03500
C2111       C  0.88128208  0.87536823  0.36551562    -0.04400
C2112       C  0.83763806  0.85758132  0.36262489    -0.01500
C2113       C  0.81140964  0.82828311  0.38355754     0.03500
C2114       C  0.88769871  0.81359487  0.43146596     0.38100
C2115       C  0.81796446  0.86703329  0.33762239     0.38100
C2116       C  0.76769723  0.81609082  0.38369922     0.36500
C2117       C  0.94207169  0.88154898  0.39509626     0.36500
N2118       N  0.73313965  0.80713996  0.38381686    -0.38300
N2119       N  0.97751983  0.89653989  0.39917758    -0.38300
N2120       N  0.79885593  0.87169841  0.31843912    -0.37700
N2121       N  0.90125705  0.80093111  0.44963874    -0.37700
C2122       C  0.64271081  0.62130833  0.34634006    -0.04400
C2123       C  0.63941131  0.65379753  0.35988513    -0.01500
C2124       C  0.66796902  0.67903727  0.38325446     0.03500
C2125       C  0.70175272  0.67426420  0.39218184    -0.04400
C2126       C  0.70578766  0.64272158  0.37891807    -0.01500
C2127       C  0.67714408  0.61686153  0.35587040     0.03500
C2128       C  0.60775819  0.66287743  0.34951514     0.38100
C2129       C  0.73970402  0.63684684  0.38917366     0.38100
C2130       C  0.68592653  0.58801876  0.34073575     0.36500
C2131       C  0.66215136  0.70974951  0.39862762     0.36500
N2132       N  0.69427739  0.56589990  0.32876415    -0.38300
N2133       N  0.65687567  0.73370826  0.41108807    -0.38300
N2134       N  0.76647089  0.63187597  0.39748908    -0.37700
N2135       N  0.58304594  0.67083772  0.34121433    -0.37700
C2136       C  0.87167189  0.86528072  0.20500217    -0.04400
C2137       C  0.88470978  0.85485441  0.17753900    -0.01500
C2138       C  0.85547703  0.82351199  0.15744068     0.03500
C2139       C  0.81244484  0.80514178  0.16290107    -0.04400
C2140       C  0.79977119  0.81853788  0.18879709    -0.01500
C2141       C  0.82903142  0.84342595  0.21153129     0.03500
C2142       C  0.92839283  0.87105317  0.17252162     0.38100
C2143       C  0.75633235  0.80561465  0.19285758     0.38100
C2144       C  0.81541218  0.83834755  0.24301122     0.36500
C2145       C  0.87019268  0.80845907  0.13264536     0.36500
N2146       N  0.80372894  0.83101062  0.26800050    -0.38300
N2147       N  0.88216048  0.79651261  0.11299278    -0.38300
N2148       N  0.72170841  0.79532424  0.19594622    -0.37700
N2149       N  0.96302733  0.88233157  0.16862634    -0.37700
C2150       C  0.69220267  0.66308237  0.16614418    -0.04400
C2151       C  0.70545657  0.65123854  0.19302356    -0.01500
C2152       C  0.67656648  0.62595918  0.21486604     0.03500
C2153       C  0.63350048  0.60931870  0.20916193    -0.04400
C2154       C  0.62004672  0.61712954  0.18057085    -0.01500
C2155       C  0.64907011  0.64496965  0.15969565     0.03500
C2156       C  0.74915136  0.66551779  0.19870189     0.38100
C2157       C  0.57661209  0.59473304  0.17151250     0.38100
C2158       C  0.63408831  0.65577566  0.13219474     0.36500
C2159       C  0.69189130  0.61904487  0.24397317     0.36500
N2160       N  0.62188765  0.66412263  0.11025117    -0.38300
N2161       N  0.70474188  0.61408974  0.26708592    -0.38300
N2162       N  0.54241073  0.57635985  0.16304420    -0.37700
N2163       N  0.78391390  0.67709526  0.20367309    -0.37700
C2164       C  0.75217784  0.72629105  0.06344080    -0.04400
C2165       C  0.77844233  0.71498844  0.04871472    -0.01500
C2166       C  0.78191779  0.71713739  0.01624781     0.03500
C2167       C  0.75846734  0.72978154  0.49843645    -0.04400
C2168       C  0.73158816  0.74028185  0.01312256    -0.01500
C2169       C  0.72850413  0.73861126  0.04559215     0.03500
C2170       C  0.80224212  0.70168737  0.06707216     0.38100
C2171       C  0.70812056  0.75408493  0.49486828     0.38100
C2172       C  0.70151883  0.75022870  0.06074685     0.36500
C2173       C  0.81027845  0.70730133  0.00115889     0.36500
N2174       N  0.68002665  0.75951951  0.07285667    -0.38300
N2175       N  0.83308559  0.69981954  0.48901286    -0.38300
N2176       N  0.68956372  0.76529656  0.48034602    -0.37700
N2177       N  0.82109745  0.69099672  0.08179456    -0.37700
C2178       C  0.72342166  0.69727193  0.64703745     0.04100
C2179       C  0.75262454  0.73362548  0.66200099    -0.12100
C2180       C  0.78115698  0.76761750  0.64544620     0.01600
C2181       C  0.77981892  0.76494116  0.61303654    -0.10600
C2182       C  0.75198045  0.72842085  0.59766165     0.04100
C2183       C  0.72409415  0.69456972  0.61460124    -0.10000
H2184       H  0.75303679  0.73548641  0.68702450     0.09700
H2185       H  0.80052818  0.79107669  0.59966457     0.07200
H2186       H  0.70292294  0.66646802  0.60249205     0.07000
C2187       C  0.73518428  0.70497700  0.91299388     0.04100
C2188       C  0.73264490  0.70144926  0.94519995    -0.12100
C2189       C  0.76251782  0.73270119  0.96440491     0.01600
C2190       C  0.79458401  0.76797497  0.95138339    -0.10600
C2191       C  0.79749482  0.77176931  0.91912877     0.04100
C2192       C  0.76826419  0.73943324  0.90015665    -0.10000
H2193       H  0.70702559  0.67497172  0.95529775     0.09700
H2194       H  0.81608538  0.79292313  0.96635722     0.07200
H2195       H  0.76987963  0.74212747  0.87518400     0.07000
C2196       C  0.74635754  0.97704652  0.64723290     0.04100
C2197       C  0.71117065  0.97324948  0.66120363    -0.12100
C2198       C  0.68343377  0.98172371  0.64501086     0.01600
C2199       C  0.68900676  0.98928528  0.61313274    -0.10600
C2200       C  0.72130056  0.98782113  0.59801586     0.04100
C2201       C  0.75101489  0.98339547  0.61534605    -0.10000
H2202       H  0.70688109  0.96604488  0.68557593     0.09700
H2203       H  0.66851688  0.99623351  0.59989232     0.07200
H2204       H  0.77732962  0.98464842  0.60407285     0.07000
C2205       C  0.76943057  0.00325688  0.91884543     0.04100
C2206       C  0.76340771  0.99501585  0.95034439    -0.12100
C2207       C  0.72912196  0.99335846  0.96435192     0.01600
C2208       C  0.69822435  0.99436718  0.94593622    -0.10600
C2209       C  0.70448687  0.00415988  0.91421803     0.04100
C2210       C  0.74312619  0.01341809  0.90242371    -0.10000
H2211       H  0.78456629  0.98905456  0.96373989     0.09700
H2212       H  0.66932423  0.98684798  0.95664388     0.07200
H2213       H  0.75178047  0.02512597  0.87945961     0.07000
C2214       C  0.96080822  0.72531463  0.65026736     0.04100
C2215       C  0.96300236  0.72770579  0.61787407    -0.12100
C2216       C  0.96404469  0.69696342  0.60034265     0.01600
C2217       C  0.96494146  0.66479877  0.61547678    -0.10600
C2218       C  0.96268199  0.66195396  0.64789079     0.04100
C2219       C  0.95864823  0.69152354  0.66482213    -0.10000
H2220       H  0.96413972  0.75344006  0.60638020     0.09700
H2221       H  0.96855883  0.64274865  0.60198737     0.07200
H2222       H  0.95645657  0.68961806  0.68981085     0.07000
C2223       C  0.97698214  0.73620181  0.91766160     0.04100
C2224       C  0.98283797  0.70721557  0.90209934    -0.12100
C2225       C  0.97966471  0.67332040  0.91734275     0.01600
C2226       C  0.97315187  0.67022557  0.94947211    -0.10600
C2227       C  0.96989774  0.70061868  0.96585873     0.04100
C2228       C  0.97092738  0.73312965  0.94970984    -0.10000
H2229       H  0.98893859  0.71066376  0.87753338     0.09700
H2230       H  0.97100520  0.64457290  0.96178603     0.07200
H2231       H  0.96773912  0.75620948  0.96209404     0.07000
O2232       O  0.89017513  0.51121141  0.75256711    -0.87200
C2233       C  0.61088667  0.59231002  0.82267196     1.12800
O2234       O  0.94062531  0.97567924  0.78332243    -1.35100
O2235       O  0.57455169  0.59129666  0.74057430    -0.88700
O2236       O  0.85675503  0.94386085  0.74945960    -0.89400
O2237       O  0.93420852  0.92790787  0.71852055    -0.78200
O2238       O  0.98313400  0.55252439  0.75255333    -1.00300
C2239       C  0.55385370  0.97056515  0.72492052     1.22800
O2240       O  0.97970393  0.93002422  0.78326313    -1.35200
Mn2241     Mn  0.98477702  0.97605946  0.81645876     1.82100
O2242       O  0.52087509  0.96951205  0.71664240    -0.77300
O2243       O  0.60940658  0.55857700  0.74725676    -0.86700
C2244       C  0.55868537  0.97288705  0.83839407     1.13900
C2245       C  0.60347690  0.58451709  0.73342943     1.08700
O2246       O  0.94229770  0.93635199  0.84904883    -0.78200
O2247       O  0.52649935  0.51494015  0.78120768    -1.31900
O2248       O  0.90036874  0.89665336  0.81412095    -0.97400
C2249       C  0.97257691  0.84911816  0.73849379     1.07400
Mn2250     Mn  0.58303876  0.51488102  0.78157592     1.48600
O2251       O  0.93972487  0.84527847  0.75015041    -0.86600
Mn2252     Mn  0.88100709  0.92311889  0.78433307     1.49600
O2253       O  0.90107430  0.51540732  0.82179798    -0.90500
C2254       C  0.97910265  0.54489433  0.72497182     1.20600
C2255       C  0.87137732  0.98222942  0.83110642     1.12600
Mn2256     Mn  0.97988556  0.97164232  0.74888238     1.81000
O2257       O  0.56058661  0.97028381  0.81049403    -0.95700
Mn2258     Mn  0.94064189  0.53157247  0.78403484     1.49300
C2259       C  0.86137887  0.97784665  0.74109287     1.09100
Mn2260     Mn  0.53264872  0.92345717  0.78206959     1.49900
C2261       C  0.97848638  0.85260975  0.82847968     1.12000
O2262       O  0.89695570  0.89321168  0.75537019    -1.01500
O2263       O  0.61060662  0.55967648  0.81603949    -0.91100
C2264       C  0.90218635  0.89699929  0.72746799     1.23300
O2265       O  0.55941755  0.96875072  0.75261840    -1.01900
O2266       O  0.58524633  0.60093226  0.80986394    -0.89300
O2267       O  0.51269401  0.87932671  0.81721165    -0.88900
O2268       O  0.86136796  0.94822463  0.81867702    -0.88900
Mn2269     Mn  0.53403103  0.57372814  0.77833154     1.47900
O2270       O  0.52862278  0.97554167  0.84790357    -0.77400
C2271       C  0.90907332  0.90440304  0.84171791     1.16400
O2272       O  0.97780877  0.51262787  0.71648600    -0.76100
O2273       O  0.99094753  0.52336139  0.84743076    -0.75700
Mn2274     Mn  0.92311981  0.87336108  0.78474971     1.51100
O2275       O  0.50824070  0.87722161  0.74776958    -0.88100
O2276       O  0.99156539  0.55828572  0.80969115    -0.95600
O2277       O  0.94425325  0.84908458  0.81924513    -0.90600
C2278       C  0.99344829  0.55561784  0.83757996     1.14200
C2279       C  0.99220571  0.58710493  0.85815988    -0.04400
C2280       C  0.01490591  0.60049147  0.88661255    -0.01500
C2281       C  0.01125442  0.62873680  0.90607828     0.03500
C2282       C  0.98229858  0.64130765  0.89861251    -0.04400
C2283       C  0.95872569  0.62670264  0.87074237    -0.01500
C2284       C  0.96700561  0.60381768  0.84938509     0.03500
C2285       C  0.54508244  0.58857798  0.89455835     0.38100
C2286       C  0.92517554  0.63468481  0.86394277     0.38100
C2287       C  0.95128235  0.60031168  0.81785824     0.36500
C2288       C  0.53878538  0.64633038  0.93289613     0.36500
N2289       N  0.93915878  0.59877887  0.79274429    -0.38300
N2290       N  0.56089852  0.66061589  0.95419894    -0.38300
N2291       N  0.89834140  0.64084467  0.85853450    -0.37700
N2292       N  0.57030067  0.58058374  0.90110921    -0.37700
C2293       C  0.97754721  0.76950015  0.89924309    -0.04400
C2294       C  0.51510242  0.79970893  0.88727901    -0.01500
C2295       C  0.51550106  0.82562238  0.86380233     0.03500
C2296       C  0.97814593  0.82391198  0.85319253    -0.04400
C2297       C  0.94014860  0.79298310  0.86579649    -0.01500
C2298       C  0.94016671  0.76644230  0.88868603     0.03500
C2299       C  0.55366832  0.80286087  0.89839335     0.38100
C2300       C  0.90021986  0.78536623  0.85383189     0.38100
C2301       C  0.90128974  0.73441781  0.90047046     0.36500
C2302       C  0.55439601  0.84994503  0.84862044     0.36500
N2303       N  0.87035766  0.70898284  0.90996071    -0.38300
N2304       N  0.58616764  0.86701121  0.83695644    -0.38300
N2305       N  0.86814981  0.77859866  0.84426410    -0.37700
N2306       N  0.58430151  0.80528917  0.90726952    -0.37700
C2307       C  0.96907953  0.63113979  0.66494402    -0.04400
C2308       C  0.94516744  0.58889619  0.65819755    -0.01500
C2309       C  0.95001359  0.56066899  0.67660345     0.03500
C2310       C  0.97678381  0.57417812  0.70312277    -0.04400
C2311       C  0.50053202  0.61654760  0.70962056    -0.01500
C2312       C  0.49881034  0.64451257  0.68946089     0.03500
C2313       C  0.91439035  0.57411108  0.63318586     0.38100
C2314       C  0.52639647  0.63241959  0.73748835     0.38100
C2315       C  0.52881865  0.68744376  0.69372702     0.36500
C2316       C  0.92515412  0.51757169  0.66947116     0.36500
N2317       N  0.55294165  0.72152187  0.69724334    -0.38300
N2318       N  0.90522833  0.48318304  0.66384355    -0.38300
N2319       N  0.54667246  0.64611293  0.75974212    -0.37700
N2320       N  0.88983723  0.56209862  0.61320265    -0.37700
C2321       C  0.96337718  0.75916203  0.66974251    -0.04400
C2322       C  0.50221615  0.79261733  0.67827783    -0.01500
C2323       C  0.50528084  0.82259176  0.69949068     0.03500
C2324       C  0.96915671  0.81895462  0.71352406    -0.04400
C2325       C  0.92985401  0.78538875  0.70373536    -0.01500
C2326       C  0.92731469  0.75636926  0.68176272     0.03500
C2327       C  0.53946675  0.79581826  0.66552372     0.38100
C2328       C  0.89136108  0.77934995  0.71622451     0.38100
C2329       C  0.88733986  0.72318809  0.67121354     0.36500
C2330       C  0.54625505  0.85682037  0.70653923     0.36500
N2331       N  0.85581883  0.69672345  0.66226003    -0.38300
N2332       N  0.57909955  0.88392352  0.71196451    -0.38300
N2333       N  0.86034564  0.77397381  0.72598062    -0.37700
N2334       N  0.56925172  0.79848373  0.65546366    -0.37700
C2335       C  0.96797831  0.69978611  0.00031484    -0.04400
C2336       C  0.00451543  0.72333223  0.51837557    -0.01500
C2337       C  0.00307245  0.72327693  0.55103463     0.03500
C2338       C  0.96529164  0.69874761  0.56591340    -0.04400
C2339       C  0.92882515  0.67480673  0.54789245    -0.01500
C2340       C  0.93009054  0.67563527  0.51519271     0.03500
C2341       C  0.04382235  0.74683444  0.00325713     0.38100
C2342       C  0.89001036  0.64929486  0.56311292     0.38100
C2343       C  0.89241364  0.65172666  0.49683922     0.36500
C2344       C  0.04058909  0.74809530  0.56936822     0.36500
N2345       N  0.86229105  0.63266323  0.98222311    -0.38300
N2346       N  0.57053068  0.76802689  0.58394881    -0.38300
N2347       N  0.85920018  0.62889191  0.57541515    -0.37700
N2348       N  0.07514810  0.76526399  0.99109131    -0.37700
C2349       C  0.79654416  0.99296276  0.90082771    -0.04400
C2350       C  0.83987602  0.01297085  0.90535815    -0.01500
C2351       C  0.86398881  0.00536162  0.88443028     0.03500
C2352       C  0.84569315  0.98314322  0.85662378    -0.04400
C2353       C  0.80205282  0.96149218  0.85339006    -0.01500
C2354       C  0.77797696  0.96285047  0.87736144     0.03500
C2355       C  0.85947081  0.04034797  0.93160212     0.38100
C2356       C  0.78148929  0.94046648  0.82473584     0.38100
C2357       C  0.73445491  0.93212692  0.87877462     0.36500
C2358       C  0.90557437  0.01550943  0.89352670     0.36500
N2359       N  0.69990540  0.90734921  0.88021106    -0.38300
N2360       N  0.93764264  0.52151472  0.90232358    -0.38300
N2361       N  0.76448941  0.92424696  0.80184112    -0.37700
N2362       N  0.87528686  0.56205721  0.95263276    -0.39500
C2363       C  0.59404112  0.97798184  0.85887670    -0.04400
C2364       C  0.60084792  0.99517251  0.88903704    -0.01500
C2365       C  0.63913973  0.00869746  0.90498120     0.03500
C2366       C  0.66919084  0.99986604  0.89332339    -0.04400
C2367       C  0.66198450  0.98231059  0.86291454    -0.01500
C2368       C  0.62461803  0.97066246  0.84645356     0.03500
C2369       C  0.56780434  0.99693035  0.90478086     0.38100
C2370       C  0.69339068  0.97891287  0.84607034     0.38100
C2371       C  0.61777245  0.94998566  0.81657969     0.36500
C2372       C  0.64879961  0.03500278  0.93203556     0.36500
N2373       N  0.61263124  0.93334683  0.79297266    -0.38300
N2374       N  0.65654966  0.05628063  0.95342240    -0.38300
N2375       N  0.71745684  0.97720416  0.83054885    -0.37700
N2376       N  0.54100100  0.99704420  0.91776730    -0.37700
C2377       C  0.83203929  0.97830733  0.71656669    -0.04400
C2378       C  0.83928211  0.01499495  0.70236717    -0.01500
C2379       C  0.81292466  0.01405957  0.67798458     0.03500
C2380       C  0.77890632  0.97691365  0.66750413    -0.04400
C2381       C  0.77087304  0.94074628  0.68180296    -0.01500
C2382       C  0.79565470  0.94162801  0.70715499     0.03500
C2383       C  0.87119573  0.55435550  0.71421245     0.38100
C2384       C  0.73549327  0.90252947  0.67125570     0.38100
C2385       C  0.77917524  0.90593181  0.72617215     0.36500
C2386       C  0.81936244  0.55172505  0.66473192     0.36500
N2387       N  0.76405013  0.87764943  0.74161158    -0.38300
N2388       N  0.82438471  0.58169591  0.65419744    -0.38300
N2389       N  0.70735428  0.87211718  0.66278081    -0.37700
N2390       N  0.89598760  0.58604312  0.72368363    -0.37700
C2391       C  0.65062291  0.98444523  0.66274039    -0.04400
C2392       C  0.60902915  0.96705329  0.65182505    -0.01500
C2393       C  0.57903851  0.96833617  0.67066426     0.03500
C2394       C  0.58750160  0.97778966  0.70272538    -0.04400
C2395       C  0.62952560  0.99557876  0.71328649    -0.01500
C2396       C  0.66089755  0.00324870  0.69236973     0.03500
C2397       C  0.59611864  0.94632941  0.62199380     0.38100
C2398       C  0.64221043  0.50758712  0.74529422     0.38100
C2399       C  0.70390684  0.53135037  0.70135853     0.36500
C2400       C  0.54140475  0.96323928  0.65616927     0.36500
N2401       N  0.73801772  0.55381769  0.70859067    -0.38300
N2402       N  0.01256177  0.96120641  0.64391204    -0.38300
N2403       N  0.65412785  0.51831009  0.77041382    -0.37700
N2404       N  0.58554647  0.92948240  0.59828396    -0.37700
C2405       C  0.72597143  0.99134621  0.99848541    -0.04400
C2406       C  0.71380140  0.95465956  0.51383221    -0.01500
C2407       C  0.71230862  0.95361865  0.54642152     0.03500
C2408       C  0.72301042  0.98932100  0.56374646    -0.04400
C2409       C  0.73444713  0.52586932  0.54831201    -0.01500
C2410       C  0.73642483  0.52700174  0.51576161     0.03500
C2411       C  0.70249346  0.91794709  0.99604321     0.38100
C2412       C  0.74424640  0.56229103  0.56592270     0.38100
C2413       C  0.75017866  0.56506662  0.49999057     0.36500
C2414       C  0.69869032  0.91556483  0.56215358     0.36500
N2415       N  0.76128919  0.59532358  0.98729495    -0.38300
N2416       N  0.68771556  0.88525992  0.57478870    -0.38300
N2417       N  0.75170941  0.59125783  0.57995274    -0.37700
N2418       N  0.69348509  0.88870256  0.98181827    -0.37700
C2419       C  0.82723957  0.81098424  0.90445230    -0.04400
C2420       C  0.87068653  0.82953408  0.90881148    -0.01500
C2421       C  0.89763147  0.86269748  0.89018662     0.03500
C2422       C  0.88128754  0.87536700  0.86551322    -0.04400
C2423       C  0.83764348  0.85757815  0.86262210    -0.01500
C2424       C  0.81141548  0.82827833  0.88355397     0.03500
C2425       C  0.88770742  0.81359645  0.93146440     0.38100
C2426       C  0.81796988  0.86703076  0.83762008     0.38100
C2427       C  0.76770218  0.81608280  0.88369399     0.36500
C2428       C  0.94207827  0.88154870  0.89509284     0.36500
N2429       N  0.73314372  0.80712905  0.88380981    -0.38300
N2430       N  0.97752653  0.89653949  0.89917350    -0.38300
N2431       N  0.79886189  0.87169668  0.81843689    -0.37700
N2432       N  0.90126669  0.80093467  0.94963809    -0.37700
C2433       C  0.64271437  0.62130674  0.84634479    -0.04400
C2434       C  0.63941526  0.65379493  0.85989226    -0.01500
C2435       C  0.66797472  0.67903392  0.88326099     0.03500
C2436       C  0.70175930  0.67426081  0.89218552    -0.04400
C2437       C  0.70579272  0.64271804  0.87892044    -0.01500
C2438       C  0.67714747  0.61685862  0.85587346     0.03500
C2439       C  0.60776076  0.66287453  0.84952540     0.38100
C2440       C  0.73970931  0.63684253  0.88917397     0.38100
C2441       C  0.68592741  0.58801414  0.84073859     0.36500
C2442       C  0.66215832  0.70974576  0.89863617     0.36500
N2443       N  0.69427600  0.56589338  0.82876735    -0.38300
N2444       N  0.65688359  0.73370429  0.91109798    -0.38300
N2445       N  0.76647632  0.63187095  0.89748773    -0.37700
N2446       N  0.58304751  0.67083483  0.84122726    -0.37700
C2447       C  0.87168063  0.86528803  0.70500028    -0.04400
C2448       C  0.88471897  0.85486024  0.67753802    -0.01500
C2449       C  0.85548624  0.82351721  0.65744004     0.03500
C2450       C  0.81245413  0.80514859  0.66289969    -0.04400
C2451       C  0.79978024  0.81854620  0.68879458    -0.01500
C2452       C  0.82904004  0.84343390  0.71152894     0.03500
C2453       C  0.92840203  0.87105802  0.67252160     0.38100
C2454       C  0.75634124  0.80562284  0.69285459     0.38100
C2455       C  0.81542028  0.83835347  0.74300873     0.36500
C2456       C  0.87020138  0.80846143  0.63264635     0.36500
N2457       N  0.80373594  0.83101407  0.76799757    -0.38300
N2458       N  0.88216880  0.79651231  0.61299537    -0.38300
N2459       N  0.72171712  0.79533195  0.69594277    -0.37700
N2460       N  0.96303659  0.88233573  0.66862726    -0.37700
C2461       C  0.69220831  0.66309293  0.66614805    -0.04400
C2462       C  0.70546237  0.65124529  0.69302539    -0.01500
C2463       C  0.67657266  0.62596499  0.71486785     0.03500
C2464       C  0.63350663  0.60932642  0.70916514    -0.04400
C2465       C  0.62005260  0.61714246  0.68057621    -0.01500
C2466       C  0.64907572  0.64498530  0.65970232     0.03500
C2467       C  0.74915685  0.66552163  0.69870185     0.38100
C2468       C  0.57661798  0.59474790  0.67151784     0.38100
C2469       C  0.63409376  0.65580076  0.63220641     0.36500
C2470       C  0.69189789  0.61904779  0.74397367     0.36500
N2471       N  0.62189310  0.66415609  0.61026714    -0.38300
N2472       N  0.70474845  0.61409036  0.76708556    -0.38300
N2473       N  0.54241692  0.57637623  0.66304867    -0.37700
N2474       N  0.78391914  0.67709663  0.70367178    -0.37700
C2475       C  0.75217345  0.72629685  0.56344122    -0.04400
C2476       C  0.77843276  0.71498954  0.54871275    -0.01500
C2477       C  0.78190228  0.71713451  0.51624540     0.03500
C2478       C  0.75848214  0.72978192  0.99843695    -0.04400
C2479       C  0.73157741  0.74028503  0.51312425    -0.01500
C2480       C  0.72849894  0.73861800  0.54559439     0.03500
C2481       C  0.80223467  0.70168911  0.56706820     0.38100
C2482       C  0.70813370  0.75408313  0.99486511     0.38100
C2483       C  0.70151909  0.75024051  0.56075146     0.36500
C2484       C  0.81025584  0.70729112  0.50115372     0.36500
N2485       N  0.68003144  0.75953558  0.57286323    -0.38300
N2486       N  0.83311448  0.69983610  0.98902074    -0.38300
N2487       N  0.68957922  0.76529657  0.98034195    -0.37700
N2488       N  0.82109228  0.69099950  0.58178888    -0.37700
loop_ 
_geom_bond_atom_site_label_1 
_geom_bond_atom_site_label_2 
_geom_bond_distance 
_geom_bond_site_symmetry_2 
_ccdc_geom_bond_type 
C1            C2   1.404       .  A
C1            C6   1.406       .  A
C1          C284   1.504       .  S
C2            C3   1.406       .  A
C2            H7   1.082       .  S
C3            C4   1.401       .  A
C3          C273   1.502       .  S
C4            C5   1.403       .  A
C4            H8   1.083       .  S
C5            C6   1.405       .  A
C5          C298   1.480       .  S
C6            H9   1.083       .  S
C10          C11   1.399       .  A
C10          C15   1.401       .  A
C10         C259   1.488       .  S
C11          C12   1.404       .  A
C11          H16   1.084       .  S
C12          C13   1.405       .  A
C12         C301   1.480       .  S
C13          C14   1.402       .  A
C13          H17   1.083       .  S
C14          C15   1.409       .  A
C14         C242   1.496       .  S
C15          H18   1.084       .  S
C19          C20   1.396       .  A
C19          C24   1.399       .  A
C19         C203   1.486       .  S
C20          C21   1.406       .  A
C20          H25   1.084       .  S
C21          C22   1.406       .  A
C21         C214   1.502       .  S
C22          C23   1.406       .  A
C22          H26   1.082       .  S
C23          C24   1.406       .  A
C23         C231   1.483       .  S
C24          H27   1.084       .  S
C28          C29   1.395       .  A
C28          C33   1.405       .  A
C28         C172   1.485       .  S
C29          C30   1.398       .  A
C29          H34   1.084       .  S
C30          C31   1.405       .  A
C30         C228   1.481       .  S
C31          C32   1.415       .  A
C31          H35   1.081       .  S
C32          C33   1.408       .  A
C32         C189   1.521       .  S
C33          H36   1.077       .  S
C37          C38   1.404       .  A
C37          C42   1.402       .  A
C37         C144   1.496       .  S
C38          C39   1.408       .  A
C38          H43   1.083       .  S
C39          C40   1.407       .  A
C39         C161   1.490       .  S
C40          C41   1.406       .  A
C40          H44   1.083       .  S
C41          C42   1.410       .  A
C41         C130   1.504       .  S
C42          H45   1.084       .  S
C46          C47   1.399       .  A
C46          C51   1.403       .  A
C46         C116   1.493       .  S
C47          C48   1.405       .  A
C47          H52   1.084       .  S
C48          C49   1.409       .  A
C48         C105   1.504       .  S
C49          C50   1.410       .  A
C49          H53   1.083       .  S
C50          C51   1.409       .  A
C50         C158   1.491       .  S
C51          H54   1.084       .  S
O55         Mn81   2.103       .  S
O55         C704   1.272   1_545  A
C56         C256   1.517       .  S
C56          O89   1.276       .  A
C56          O86   1.268       .  A
O57         Mn64   2.157       .  S
O57         Mn75   2.121       .  S
O57         Mn79   2.165       .  S
O57        Mn703   2.128       .  S
O58         Mn92   2.117       .  S
O58          C68   1.272       .  A
O59         Mn75   2.096       .  S
O59          C82   1.273       .  A
O60         Mn79   2.108       .  S
O60          C87   1.255       .  A
O61         Mn81   1.955       .  S
O61       Mn1336   1.968       .  S
O61          C77   1.213       .  S
C62         C217   1.507       .  S
C62          O65   1.256       .  A
C62          O88   1.219       .  S
O63         Mn64   2.189       .  S
O63         Mn97   2.135       .  S
O63         Mn79   2.176       .  S
O63       Mn1327   2.113       .  S
Mn64         O69   2.118       .  S
Mn64       O1337   2.115       .  S
Mn64        O718   2.152       .  S
Mn64       O1936   2.177       .  S
O65       Mn1323   2.118   1_455  S
O66         Mn73   2.092       .  S
O66          C68   1.266       .  A
C67         C186   1.503       .  S
C67          O93   1.252       .  A
C67          O80   1.215       .  S
C68         C287   1.497       .  S
O69          C94   1.259       .  A
O70         Mn73   2.110       .  S
O70         Mn92   2.117       .  S
O70       Mn1930   2.177   1_445  S
O70       Mn1945   2.168   1_445  S
O71         Mn75   1.976       .  S
O71         Mn97   1.974       .  S
O71          C94   1.224       .  S
C72         C147   1.527       .  S
C72          O74   1.273       .  A
C72        O1342   1.274       .  A
Mn73         O86   2.083       .  S
Mn73        O710   1.951   1_545  S
Mn73        O702   1.945   1_545  S
O74         Mn97   2.107       .  S
Mn75         O91   2.092       .  S
Mn75         O85   1.976       .  S
O76         Mn81   2.100       .  S
O76         C700   1.267   1_545  A
C77         C133   1.500       .  S
C77          O95   1.257       .  A
C78         C175   1.485       .  S
C78          O91   1.266       .  A
C78         O698   1.267       .  A
Mn79       O1309   2.118       .  S
Mn79        O717   2.132       .  S
Mn79       O1936   2.168       .  S
O80         Mn83   1.959       .  S
O80        Mn695   1.945       .  S
Mn81        O679   2.128   1_545  S
Mn81         O99   1.961       .  S
C82         C200   1.516       .  S
C82         O677   1.272       .  A
Mn83         O90   2.122       .  S
Mn83         O98   2.106       .  S
Mn83       O1307   2.113   1_455  S
Mn83         O88   1.984       .  S
C84         C119   1.528       .  S
C84         O100   1.272       .  A
C84        O1334   1.276       .  A
O85         Mn97   1.960       .  S
O85          C87   1.222       .  S
C87         C270   1.504       .  S
O88        Mn695   1.951       .  S
O89         Mn92   2.117       .  S
O90        C1328   1.276   1_455  A
Mn92       O1305   1.968   1_455  S
Mn92       O1343   1.961   1_455  S
O93       Mn1308   2.115   1_455  S
C94         C245   1.503       .  S
O95        Mn701   2.132   1_545  S
O96        Mn686   2.152   1_545  S
O96         C101   1.262       .  A
Mn97        O100   2.098       .  S
O98        C1316   1.274   1_455  A
O99       Mn1336   1.961       .  S
O99         C101   1.213       .  S
C101        C102   1.508       .  S
C102        C103   1.418       .  A
C102        C107   1.422       .  A
C103        C104   1.422       .  A
C103       C1352   1.446       .  S
C104        C105   1.417       .  A
C104       C1355   1.450       .  S
C105        C106   1.412       .  A
C106        C107   1.406       .  A
C106        C109   1.454       .  S
C107        C110   1.452       .  S
C108       C1347   1.446       .  S
C108        N115   1.156       .  T
C109        N114   1.157       .  T
C110        N112   1.158       .  T
C111       C1348   1.450       .  S
C111        N113   1.157       .  T
C116        C121   1.407       .  A
C116       C1361   1.404       .  A
C117        C118   1.414       .  A
C117       C1360   1.404   1_455  A
C117        C122   1.455       .  S
C118       C1363   1.429   1_455  A
C118        C125   1.445       .  S
C119        C120   1.434       .  A
C119       C1362   1.429       .  A
C120        C121   1.419       .  A
C120        C123   1.452       .  S
C121        C124   1.453       .  S
C122        N129   1.157       .  T
C123        N128   1.158       .  T
C124        N126   1.157       .  T
C125        N127   1.155       .  T
C130        C131   1.419       .  A
C130       C1379   1.413       .  A
C131        C132   1.421       .  A
C131        C136   1.450       .  S
C132        C133   1.418       .  A
C132        C139   1.451       .  S
C133       C1378   1.421       .  A
C134        C135   1.405   1_455  A
C134       C1377   1.421   1_455  A
C134        C137   1.452       .  S
C135       C1374   1.413       .  A
C135        C138   1.454   1_655  S
C136        N143   1.158       .  T
C137        N142   1.158       .  T
C138        N140   1.157       .  T
C139        N141   1.158   1_545  T
C144        C149   1.405       .  A
C144       C1389   1.408       .  A
C145        C146   1.417       .  A
C145       C1388   1.408   1_455  A
C145        C150   1.452       .  S
C146       C1391   1.431   1_455  A
C146        C153   1.452       .  S
C147        C148   1.433       .  A
C147       C1390   1.431       .  A
C148        C149   1.418       .  A
C148        C151   1.451       .  S
C149        C152   1.452       .  S
C150        N157   1.157       .  T
C151        N156   1.158       .  T
C152        N154   1.157       .  T
C153        N155   1.158       .  T
C158        C470   1.413       .  A
C158        C474   1.412       .  A
C159        C160   1.413       .  A
C159        C469   1.413       .  A
C159        C475   1.451       .  S
C160        C161   1.412       .  A
C160        C167   1.450       .  S
C161        C162   1.413       .  A
C162        C163   1.414       .  A
C162        C165   1.451       .  S
C163        C469   1.412       .  A
C163        C166   1.449   1_554  S
C164        C470   1.451       .  S
C164        N171   1.157       .  T
C165        N170   1.157       .  T
C166        N479   1.157       .  T
C167       N1413   1.157       .  T
N168        C477   1.157       .  T
N169       C1411   1.157       .  T
C172        C173   1.409       .  A
C172        C177   1.409       .  A
C173        C174   1.414       .  A
C173        C178   1.448       .  S
C174        C175   1.415       .  A
C174        C181   1.444       .  S
C175        C176   1.412       .  A
C176        C177   1.401       .  A
C176        C179   1.449       .  S
C177        C180   1.452       .  S
C178        N807   1.157       .  T
C179        N184   1.157       .  T
C180        N182   1.158       .  T
C181        N805   1.156       .  T
N183        C803   1.156       .  T
N185        C800   1.157       .  T
C186        C187   1.415       .  A
C186        C191   1.417       .  A
C187        C188   1.415       .  A
C187        C192   1.449       .  S
C188        C189   1.421       .  A
C188        C195   1.452       .  S
C189        C190   1.429       .  A
C190        C191   1.409       .  A
C190        C193   1.450       .  S
C191        C194   1.458       .  S
C192        N199   1.157       .  T
C193        N198   1.158       .  T
C194        N196   1.158       .  T
C195        N197   1.158       .  T
C200        C201   1.428       .  A
C200        C205   1.425       .  A
C201        C202   1.416       .  A
C201        C828   1.451       .  S
C202        C203   1.410       .  A
C202        C831   1.454       .  S
C203        C204   1.404       .  A
C204        C205   1.410       .  A
C204        C207   1.453       .  S
C205        C208   1.447       .  S
C206        C823   1.451       .  S
C206        N213   1.158       .  T
C207        N212   1.157       .  T
C208        N210   1.156       .  T
C209        C824   1.454       .  S
C209        N211   1.158       .  T
C214        C215   1.417       .  A
C214        C219   1.412       .  A
C215        C216   1.416       .  A
C215        C220   1.449       .  S
C216        C217   1.418       .  A
C216        C223   1.447       .  S
C217        C218   1.425       .  A
C218        C219   1.404       .  A
C218        C843   1.448       .  S
C219        C844   1.457       .  S
C220        N227   1.157       .  T
C221        C840   1.448   1_545  S
C221        N226   1.156       .  T
C222        C841   1.457       .  S
C222        N224   1.158       .  T
C223       N1469   1.157       .  T
N225       C1467   1.157       .  T
C228        C540   1.409       .  A
C228       C1166   1.413       .  A
C229        C230   1.410       .  A
C229        C539   1.409   1_554  A
C229        C545   1.451   1_554  S
C230        C231   1.414       .  A
C230        C237   1.451       .  S
C231        C854   1.411       .  A
C232        C233   1.409       .  A
C232        C853   1.411   1_545  A
C232        C235   1.451       .  S
C233       C1161   1.413   1_544  A
C233        C236   1.452   1_554  S
C234        C540   1.451       .  S
C234        N241   1.157       .  T
C235        N240   1.157       .  T
C236        N549   1.157       .  T
C237        N239   1.157       .  T
N238        C547   1.157       .  T
C242        C243   1.415       .  A
C242        C247   1.405       .  A
C243        C244   1.422       .  A
C243        C248   1.449       .  S
C244        C245   1.421       .  A
C244        C251   1.450       .  S
C245        C246   1.418       .  A
C246        C247   1.404       .  A
C246        C249   1.441       .  S
C247        C250   1.455       .  S
C248        N255   1.157       .  T
C249        N254   1.155       .  T
C250        N252   1.157       .  T
C251        N253   1.157       .  T
C256        C257   1.426       .  A
C256        C261   1.431       .  A
C257        C258   1.414       .  A
C257        C262   1.452       .  S
C258        C259   1.408       .  A
C258        C265   1.451       .  S
C259        C260   1.403       .  A
C260        C261   1.413       .  A
C260        C263   1.453       .  S
C261        C264   1.449       .  S
C262        N269   1.158       .  T
C263        N268   1.157       .  T
C264        N266   1.157       .  T
C265        N267   1.157       .  T
C270        C271   1.418       .  A
C270        C275   1.412       .  A
C271        C272   1.420       .  A
C271        C276   1.446       .  S
C272        C273   1.419       .  A
C272        C279   1.451       .  S
C273        C274   1.410       .  A
C274        C275   1.402       .  A
C274        C277   1.453       .  S
C275        C278   1.440       .  S
C276        N283   1.155       .  T
C277        N282   1.157       .  T
C278        N280   1.154       .  T
C279        N281   1.158       .  T
C284        C285   1.416       .  A
C284        C289   1.418       .  A
C285        C286   1.410       .  A
C285        C290   1.452       .  S
C286        C287   1.417       .  A
C286        C293   1.451       .  S
C287        C288   1.413       .  A
C288        C289   1.416       .  A
C288        C291   1.447       .  S
C289        C292   1.451       .  S
C290        N297   1.157       .  T
C291        N296   1.156       .  T
C292        N294   1.158       .  T
C293        N295   1.157       .  T
C298        C299   1.412       .  A
C298        C303   1.411       .  A
C299        C300   1.410       .  A
C299        C304   1.451       .  S
C300        C612   1.411   1_554  A
C300        C307   1.451       .  S
C301        C611   1.411       .  A
C301        C613   1.411       .  A
C302        C303   1.409       .  A
C302        C612   1.411   1_554  A
C302        C616   1.451   1_554  S
C303        C306   1.451       .  S
C304        N311   1.157       .  T
C305        C613   1.451       .  S
C305        N310   1.157       .  T
C306        N308   1.157       .  T
C307        N620   1.157   1_554  T
N309        C618   1.157       .  T
C312        C313   1.404       .  A
C312        C317   1.406       .  A
C312        C595   1.504       .  S
C313        C314   1.406       .  A
C313        H318   1.082       .  S
C314        C315   1.401       .  A
C314        C584   1.502       .  S
C315        C316   1.403       .  A
C315        H319   1.083       .  S
C316        C317   1.405       .  A
C316        C609   1.480       .  S
C317        H320   1.083       .  S
C321        C322   1.399       .  A
C321        C326   1.401       .  A
C321        C570   1.488       .  S
C322        C323   1.404       .  A
C322        H327   1.084       .  S
C323        C324   1.405       .  A
C323        C612   1.480       .  S
C324        C325   1.402       .  A
C324        H328   1.083       .  S
C325        C326   1.409       .  A
C325        C553   1.496       .  S
C326        H329   1.084       .  S
C330        C331   1.396       .  A
C330        C335   1.399       .  A
C330        C514   1.486       .  S
C331        C332   1.406       .  A
C331        H336   1.084       .  S
C332        C333   1.406       .  A
C332        C525   1.502       .  S
C333        C334   1.406       .  A
C333        H337   1.082       .  S
C334        C335   1.406       .  A
C334        C542   1.483       .  S
C335        H338   1.084       .  S
C339        C340   1.395       .  A
C339        C344   1.405       .  A
C339        C483   1.485       .  S
C340        C341   1.398       .  A
C340        H345   1.084       .  S
C341        C342   1.405       .  A
C341        C539   1.481       .  S
C342        C343   1.415       .  A
C342        H346   1.081       .  S
C343        C344   1.408       .  A
C343        C500   1.521       .  S
C344        H347   1.077       .  S
C348        C349   1.404       .  A
C348        C353   1.402       .  A
C348        C455   1.496       .  S
C349        C350   1.408       .  A
C349        H354   1.083       .  S
C350        C351   1.407       .  A
C350        C472   1.490       .  S
C351        C352   1.406       .  A
C351        H355   1.083       .  S
C352        C353   1.410       .  A
C352        C441   1.504       .  S
C353        H356   1.084       .  S
C357        C358   1.399       .  A
C357        C362   1.403       .  A
C357        C427   1.493       .  S
C358        C359   1.405       .  A
C358        H363   1.084       .  S
C359        C360   1.409       .  A
C359        C416   1.504       .  S
C360        C361   1.410       .  A
C360        H364   1.083       .  S
C361        C362   1.409       .  A
C361        C469   1.491   1_556  S
C362        H365   1.084       .  S
O366       Mn392   2.103       .  S
O366       C1015   1.272   1_545  A
C367        C567   1.517       .  S
C367        O400   1.276       .  A
C367        O397   1.268       .  A
O368       Mn375   2.157       .  S
O368       Mn386   2.121       .  S
O368       Mn390   2.165       .  S
O368      Mn1014   2.128       .  S
O369       Mn403   2.117       .  S
O369        C379   1.272       .  A
O370       Mn386   2.096       .  S
O370        C393   1.273       .  A
O371       Mn390   2.108       .  S
O371        C398   1.255       .  A
O372      Mn1647   1.968       .  S
O372       Mn392   1.955       .  S
O372        C388   1.213       .  S
C373        C528   1.507       .  S
C373        O376   1.256       .  A
C373        O399   1.219       .  S
O374      Mn1638   2.113       .  S
O374       Mn375   2.189       .  S
O374       Mn408   2.135       .  S
O374       Mn390   2.176       .  S
Mn375      O1648   2.115       .  S
Mn375       O380   2.118       .  S
Mn375      O1029   2.152       .  S
Mn375      O2247   2.177       .  S
O376      Mn1634   2.118   1_455  S
O377       Mn384   2.092       .  S
O377        C379   1.266       .  A
C378        C497   1.503       .  S
C378        O404   1.252       .  A
C378        O391   1.215       .  S
C379        C598   1.497       .  S
O380        C405   1.259       .  A
O381      Mn2241   2.177   1_445  S
O381       Mn384   2.110       .  S
O381       Mn403   2.117       .  S
O381      Mn2256   2.168   1_445  S
O382       Mn386   1.976       .  S
O382       Mn408   1.974       .  S
O382        C405   1.224       .  S
C383        C458   1.527       .  S
C383       O1653   1.274       .  A
C383        O385   1.273       .  A
Mn384       O397   2.083       .  S
Mn384      O1021   1.951   1_545  S
Mn384      O1013   1.945   1_545  S
O385       Mn408   2.107       .  S
Mn386       O402   2.092       .  S
Mn386       O396   1.976       .  S
O387       Mn392   2.100       .  S
O387       C1011   1.267   1_545  A
C388        C444   1.500       .  S
C388        O406   1.257       .  A
C389        C486   1.485       .  S
C389       O1009   1.267       .  A
C389        O402   1.266       .  A
Mn390      O1620   2.118       .  S
Mn390      O1028   2.132       .  S
Mn390      O2247   2.168       .  S
O391      Mn1006   1.945       .  S
O391       Mn394   1.959       .  S
Mn392       O990   2.128   1_545  S
Mn392       O410   1.961       .  S
C393        C511   1.516       .  S
C393        O988   1.272       .  A
Mn394       O401   2.122       .  S
Mn394       O409   2.106       .  S
Mn394      O1618   2.113   1_455  S
Mn394       O399   1.984       .  S
C395        C430   1.528       .  S
C395       O1645   1.276       .  A
C395        O411   1.272       .  A
O396       Mn408   1.960       .  S
O396        C398   1.222       .  S
C398        C581   1.504       .  S
O399      Mn1006   1.951       .  S
O400       Mn403   2.117       .  S
O401       C1639   1.276   1_455  A
Mn403      O1616   1.968   1_455  S
Mn403      O1654   1.961   1_455  S
O404      Mn1619   2.115   1_455  S
C405        C556   1.503       .  S
O406      Mn1012   2.132   1_545  S
O407       Mn997   2.152   1_545  S
O407        C412   1.262       .  A
Mn408       O411   2.098       .  S
O409       C1627   1.274   1_455  A
O410      Mn1647   1.961       .  S
O410        C412   1.213       .  S
C412        C413   1.508       .  S
C413        C414   1.418       .  A
C413        C418   1.422       .  A
C414        C415   1.422       .  A
C414       C1663   1.446       .  S
C415        C416   1.417       .  A
C415       C1666   1.450       .  S
C416        C417   1.412       .  A
C417        C418   1.406       .  A
C417        C420   1.454       .  S
C418        C421   1.452       .  S
C419       C1658   1.446       .  S
C419        N426   1.156       .  T
C420        N425   1.157       .  T
C421        N423   1.158       .  T
C422       C1659   1.450       .  S
C422        N424   1.157       .  T
C427       C1672   1.404       .  A
C427        C432   1.407       .  A
C428       C1671   1.404   1_455  A
C428        C429   1.414       .  A
C428        C433   1.455       .  S
C429       C1674   1.429   1_455  A
C429        C436   1.445       .  S
C430       C1673   1.429       .  A
C430        C431   1.434       .  A
C431        C432   1.419       .  A
C431        C434   1.452       .  S
C432        C435   1.453       .  S
C433        N440   1.157       .  T
C434        N439   1.158       .  T
C435        N437   1.157       .  T
C436        N438   1.155       .  T
C441        C442   1.419       .  A
C441       C1690   1.413       .  A
C442        C443   1.421       .  A
C442        C447   1.450       .  S
C443        C444   1.418       .  A
C443        C450   1.451       .  S
C444       C1689   1.421       .  A
C445       C1688   1.421   1_455  A
C445        C446   1.405   1_455  A
C445        C448   1.452       .  S
C446       C1685   1.413       .  A
C446        C449   1.454   1_655  S
C447        N454   1.158       .  T
C448        N453   1.158       .  T
C449        N451   1.157       .  T
C450        N452   1.158   1_545  T
C455       C1700   1.408       .  A
C455        C460   1.405       .  A
C456       C1699   1.408   1_455  A
C456        C457   1.417       .  A
C456        C461   1.452       .  S
C457       C1702   1.431   1_455  A
C457        C464   1.452       .  S
C458       C1701   1.431       .  A
C458        C459   1.433       .  A
C459        C460   1.418       .  A
C459        C462   1.451       .  S
C460        C463   1.452       .  S
C461        N468   1.157       .  T
C462        N467   1.158       .  T
C463        N465   1.157       .  T
C464        N466   1.158       .  T
C470        C471   1.413       .  A
C471        C472   1.412       .  A
C471        C478   1.450       .  S
C472        C473   1.413       .  A
C473        C474   1.414       .  A
C473        C476   1.451       .  S
C474        C477   1.449       .  S
C475        N482   1.157   1_554  T
C476        N481   1.157       .  T
C478       N1724   1.157       .  T
N480       C1722   1.157       .  T
C483        C484   1.409       .  A
C483        C488   1.409       .  A
C484        C485   1.414       .  A
C484        C489   1.448       .  S
C485        C486   1.415       .  A
C485        C492   1.444       .  S
C486        C487   1.412       .  A
C487        C488   1.401       .  A
C487        C490   1.449       .  S
C488        C491   1.452       .  S
C489       N1118   1.157       .  T
C490        N495   1.157       .  T
C491        N493   1.158       .  T
C492       N1116   1.156       .  T
N494       C1114   1.156       .  T
N496       C1111   1.157       .  T
C497        C498   1.415       .  A
C497        C502   1.417       .  A
C498        C499   1.415       .  A
C498        C503   1.449       .  S
C499        C500   1.421       .  A
C499        C506   1.452       .  S
C500        C501   1.429       .  A
C501        C502   1.409       .  A
C501        C504   1.450       .  S
C502        C505   1.458       .  S
C503        N510   1.157       .  T
C504        N509   1.158       .  T
C505        N507   1.158       .  T
C506        N508   1.158       .  T
C511        C512   1.428       .  A
C511        C516   1.425       .  A
C512        C513   1.416       .  A
C512       C1139   1.451       .  S
C513        C514   1.410       .  A
C513       C1142   1.454       .  S
C514        C515   1.404       .  A
C515        C516   1.410       .  A
C515        C518   1.453       .  S
C516        C519   1.447       .  S
C517       C1134   1.451       .  S
C517        N524   1.158       .  T
C518        N523   1.157       .  T
C519        N521   1.156       .  T
C520       C1135   1.454       .  S
C520        N522   1.158       .  T
C525        C526   1.417       .  A
C525        C530   1.412       .  A
C526        C527   1.416       .  A
C526        C531   1.449       .  S
C527        C528   1.418       .  A
C527        C534   1.447       .  S
C528        C529   1.425       .  A
C529        C530   1.404       .  A
C529       C1154   1.448       .  S
C530       C1155   1.457       .  S
C531        N538   1.157       .  T
C532       C1151   1.448   1_545  S
C532        N537   1.156       .  T
C533       C1152   1.457       .  S
C533        N535   1.158       .  T
C534       N1780   1.157       .  T
N536       C1778   1.157       .  T
C539        C855   1.413   1_556  A
C540        C541   1.410       .  A
C541        C542   1.414       .  A
C541        C548   1.451       .  S
C542       C1165   1.411       .  A
C543       C1164   1.411   1_545  A
C543        C544   1.409       .  A
C543        C546   1.451       .  S
C544        C850   1.413   1_545  A
C544        C547   1.452       .  S
C545        N552   1.157       .  T
C546        N551   1.157       .  T
C548        N550   1.157       .  T
C553        C554   1.415       .  A
C553        C558   1.405       .  A
C554        C555   1.422       .  A
C554        C559   1.449       .  S
C555        C556   1.421       .  A
C555        C562   1.450       .  S
C556        C557   1.418       .  A
C557        C558   1.404       .  A
C557        C560   1.441       .  S
C558        C561   1.455       .  S
C559        N566   1.157       .  T
C560        N565   1.155       .  T
C561        N563   1.157       .  T
C562        N564   1.157       .  T
C567        C568   1.426       .  A
C567        C572   1.431       .  A
C568        C569   1.414       .  A
C568        C573   1.452       .  S
C569        C570   1.408       .  A
C569        C576   1.451       .  S
C570        C571   1.403       .  A
C571        C572   1.413       .  A
C571        C574   1.453       .  S
C572        C575   1.449       .  S
C573        N580   1.158       .  T
C574        N579   1.157       .  T
C575        N577   1.157       .  T
C576        N578   1.157       .  T
C581        C582   1.418       .  A
C581        C586   1.412       .  A
C582        C583   1.420       .  A
C582        C587   1.446       .  S
C583        C584   1.419       .  A
C583        C590   1.451       .  S
C584        C585   1.410       .  A
C585        C586   1.402       .  A
C585        C588   1.453       .  S
C586        C589   1.440       .  S
C587        N594   1.155       .  T
C588        N593   1.157       .  T
C589        N591   1.154       .  T
C590        N592   1.158       .  T
C595        C596   1.416       .  A
C595        C600   1.418       .  A
C596        C597   1.410       .  A
C596        C601   1.452       .  S
C597        C598   1.417       .  A
C597        C604   1.451       .  S
C598        C599   1.413       .  A
C599        C600   1.416       .  A
C599        C602   1.447       .  S
C600        C603   1.451       .  S
C601        N608   1.157       .  T
C602        N607   1.156       .  T
C603        N605   1.158       .  T
C604        N606   1.157       .  T
C609        C610   1.412       .  A
C609        C614   1.411       .  A
C610        C611   1.410       .  A
C610        C615   1.451       .  S
C611        C618   1.451       .  S
C613        C614   1.409       .  A
C614        C617   1.451       .  S
C615        N622   1.157       .  T
C616        N621   1.157       .  T
C617        N619   1.157       .  T
C623        C624   1.404       .  A
C623        C628   1.406       .  A
C623        C906   1.504       .  S
C624        C625   1.406       .  A
C624        H629   1.082       .  S
C625        C626   1.401       .  A
C625        C895   1.502       .  S
C626        C627   1.403       .  A
C626        H630   1.083       .  S
C627        C628   1.405       .  A
C627        C920   1.480       .  S
C628        H631   1.083       .  S
C632        C633   1.399       .  A
C632        C637   1.401       .  A
C632        C881   1.488       .  S
C633        C634   1.404       .  A
C633        H638   1.084       .  S
C634        C635   1.405       .  A
C634        C923   1.480       .  S
C635        C636   1.402       .  A
C635        H639   1.083       .  S
C636        C637   1.409       .  A
C636        C864   1.496       .  S
C637        H640   1.084       .  S
C641        C642   1.396       .  A
C641        C646   1.399       .  A
C641        C825   1.486       .  S
C642        C643   1.406       .  A
C642        H647   1.084       .  S
C643        C644   1.406       .  A
C643        C836   1.502       .  S
C644        C645   1.406       .  A
C644        H648   1.082       .  S
C645        C646   1.406       .  A
C645        C853   1.483       .  S
C646        H649   1.084       .  S
C650        C651   1.395   1_545  A
C650        C655   1.405       .  A
C650        C794   1.485   1_545  S
C651        C652   1.398       .  A
C651        H656   1.084       .  S
C652        C653   1.405       .  A
C652        C850   1.481       .  S
C653        C654   1.415   1_565  A
C653        H657   1.081       .  S
C654        C655   1.408       .  A
C654        C811   1.521   1_545  S
C655        H658   1.077       .  S
C659        C660   1.404       .  A
C659        C664   1.402       .  A
C659        C766   1.496       .  S
C660        C661   1.408       .  A
C660        H665   1.083       .  S
C661        C662   1.407       .  A
C661        C783   1.490       .  S
C662        C663   1.406       .  A
C662        H666   1.083       .  S
C663        C664   1.410       .  A
C663        C752   1.504       .  S
C664        H667   1.084       .  S
C668        C669   1.399       .  A
C668        C673   1.403       .  A
C668        C738   1.493       .  S
C669        C670   1.405       .  A
C669        H674   1.084       .  S
C670        C671   1.409       .  A
C670        C727   1.504       .  S
C671        C672   1.410       .  A
C671        H675   1.083       .  S
C672        C673   1.409       .  A
C672        C780   1.491       .  S
C673        H676   1.084       .  S
O677       Mn703   2.103       .  S
C678        C878   1.517       .  S
C678        O711   1.276       .  A
C678        O708   1.268       .  A
O679       Mn686   2.157       .  S
O679       Mn697   2.121       .  S
O679       Mn701   2.165       .  S
O680       Mn714   2.117       .  S
O680        C690   1.272       .  A
O681       Mn697   2.096       .  S
O681        C704   1.273       .  A
O682       Mn701   2.108       .  S
O682        C709   1.255       .  A
O683      Mn1958   1.968       .  S
O683       Mn703   1.955       .  S
O683        C699   1.213       .  S
C684        C839   1.507       .  S
C684        O687   1.256       .  A
C684        O710   1.219       .  S
O685      Mn1949   2.113       .  S
O685       Mn686   2.189       .  S
O685       Mn719   2.135       .  S
O685       Mn701   2.176       .  S
Mn686      O1959   2.115       .  S
Mn686       O691   2.118       .  S
Mn686      O1314   2.177   1_565  S
O687      Mn1945   2.118   1_455  S
O688       Mn695   2.092       .  S
O688        C690   1.266       .  A
C689        C808   1.503       .  S
C689        O715   1.252       .  A
C689        O702   1.215       .  S
C690        C909   1.497       .  S
O691        C716   1.259       .  A
O692      Mn1308   2.177   1_455  S
O692       Mn695   2.110       .  S
O692       Mn714   2.117       .  S
O692      Mn1323   2.168   1_455  S
O693       Mn697   1.976       .  S
O693       Mn719   1.974       .  S
O693        C716   1.224       .  S
C694        C769   1.527       .  S
C694       O1964   1.274       .  A
C694        O696   1.273       .  A
Mn695       O708   2.083       .  S
O696       Mn719   2.107       .  S
Mn697       O713   2.092       .  S
Mn697       O707   1.976       .  S
O698       Mn703   2.100       .  S
C699        C755   1.500       .  S
C699        O717   1.257       .  A
C700        C797   1.485       .  S
C700        O713   1.266       .  A
Mn701      O1931   2.118       .  S
Mn701      O1314   2.168   1_565  S
O702       Mn705   1.959       .  S
Mn703       O721   1.961       .  S
C704        C822   1.516       .  S
Mn705       O712   2.122       .  S
Mn705       O720   2.106       .  S
Mn705      O1929   2.114   1_455  S
Mn705       O710   1.984       .  S
C706        C741   1.528       .  S
C706       O1956   1.276       .  A
C706        O722   1.272       .  A
O707       Mn719   1.960       .  S
O707        C709   1.222       .  S
C709        C892   1.504       .  S
O711       Mn714   2.117       .  S
O712       C1950   1.276   1_455  A
Mn714      O1927   1.968   1_455  S
Mn714      O1965   1.961   1_455  S
O715      Mn1930   2.115   1_455  S
C716        C867   1.503       .  S
O718        C723   1.262       .  A
Mn719       O722   2.098       .  S
O720       C1938   1.274   1_455  A
O721      Mn1958   1.961       .  S
O721        C723   1.213       .  S
C723        C724   1.508       .  S
C724        C725   1.418       .  A
C724        C729   1.422       .  A
C725        C726   1.422       .  A
C725       C1974   1.446       .  S
C726        C727   1.417       .  A
C726       C1977   1.450       .  S
C727        C728   1.412       .  A
C728        C729   1.406       .  A
C728        C731   1.454       .  S
C729        C732   1.452       .  S
C730       C1969   1.446       .  S
C730        N737   1.156       .  T
C731        N736   1.157       .  T
C732        N734   1.158       .  T
C733       C1970   1.450       .  S
C733        N735   1.157       .  T
C738       C1983   1.404       .  A
C738        C743   1.407       .  A
C739       C1982   1.404   1_455  A
C739        C740   1.414       .  A
C739        C744   1.455       .  S
C740       C1985   1.429   1_455  A
C740        C747   1.445       .  S
C741       C1984   1.429       .  A
C741        C742   1.434       .  A
C742        C743   1.419       .  A
C742        C745   1.452       .  S
C743        C746   1.453       .  S
C744        N751   1.157       .  T
C745        N750   1.158       .  T
C746        N748   1.157       .  T
C747        N749   1.155       .  T
C752        C753   1.419       .  A
C752       C2001   1.413       .  A
C753        C754   1.421       .  A
C753        C758   1.450       .  S
C754        C755   1.418       .  A
C754        C761   1.451       .  S
C755       C2000   1.421       .  A
C756       C1999   1.421   1_455  A
C756        C757   1.405   1_455  A
C756        C759   1.452       .  S
C757       C1996   1.413       .  A
C757        C760   1.454   1_655  S
C758        N765   1.158       .  T
C759        N764   1.158       .  T
C760        N762   1.157       .  T
C761        N763   1.158       .  T
C766       C2011   1.408       .  A
C766        C771   1.405       .  A
C767       C2010   1.408   1_455  A
C767        C768   1.417       .  A
C767        C772   1.452       .  S
C768       C2013   1.431   1_455  A
C768        C775   1.452       .  S
C769       C2012   1.431       .  A
C769        C770   1.433       .  A
C770        C771   1.418       .  A
C770        C773   1.451       .  S
C771        C774   1.452       .  S
C772        N779   1.157       .  T
C773        N778   1.158       .  T
C774        N776   1.157       .  T
C775        N777   1.158       .  T
C780       C1092   1.413       .  A
C780       C1096   1.412       .  A
C781       C1091   1.413       .  A
C781        C782   1.413       .  A
C781       C1097   1.451       .  S
C782        C783   1.412       .  A
C782        C789   1.450       .  S
C783        C784   1.413       .  A
C784        C785   1.414       .  A
C784        C787   1.451       .  S
C785       C1091   1.412       .  A
C785        C788   1.449   1_554  S
C786       C1092   1.451       .  S
C786        N793   1.157       .  T
C787        N792   1.157       .  T
C788       N1101   1.157       .  T
C789       N2035   1.157       .  T
N790       C1099   1.157       .  T
N791       C2033   1.157       .  T
C794        C795   1.409   1_565  A
C794        C799   1.409       .  A
C795        C796   1.414       .  A
C795        C800   1.448       .  S
C796        C797   1.415   1_545  A
C796        C803   1.444       .  S
C797        C798   1.412       .  A
C798        C799   1.401       .  A
C798        C801   1.449       .  S
C799        C802   1.452       .  S
C801        N806   1.157       .  T
C802        N804   1.158       .  T
C808        C809   1.415       .  A
C808        C813   1.417       .  A
C809        C810   1.415   1_565  A
C809        C814   1.449       .  S
C810        C811   1.421   1_545  A
C810        C817   1.452       .  S
C811        C812   1.429       .  A
C812        C813   1.409       .  A
C812        C815   1.450       .  S
C813        C816   1.458       .  S
C814        N821   1.157       .  T
C815        N820   1.158       .  T
C816        N818   1.158       .  T
C817        N819   1.158       .  T
C822        C823   1.428   1_565  A
C822        C827   1.425       .  A
C823        C824   1.416       .  A
C824        C825   1.410   1_545  A
C825        C826   1.404       .  A
C826        C827   1.410       .  A
C826        C829   1.453       .  S
C827        C830   1.447       .  S
C828        N835   1.158       .  T
C829        N834   1.157       .  T
C830        N832   1.156       .  T
C831        N833   1.158       .  T
C836        C837   1.417       .  A
C836        C841   1.412   1_565  A
C837        C838   1.416       .  A
C837        C842   1.449       .  S
C838        C839   1.418       .  A
C838        C845   1.447       .  S
C839        C840   1.425       .  A
C840        C841   1.404   1_565  A
C842        N849   1.157       .  T
C843        N848   1.156       .  T
C844        N846   1.158       .  T
C845       N2091   1.157       .  T
N847       C2089   1.157       .  T
C850       C1162   1.409       .  A
C851       C1161   1.409   1_554  A
C851        C852   1.410       .  A
C851       C1167   1.451   1_554  S
C852        C853   1.414       .  A
C852        C859   1.451       .  S
C854        C855   1.409       .  A
C854        C857   1.451       .  S
C855        C858   1.452   1_554  S
C856       C1162   1.451       .  S
C856        N863   1.157       .  T
C857        N862   1.157       .  T
C858       N1171   1.157       .  T
C859        N861   1.157       .  T
N860       C1169   1.157       .  T
C864        C865   1.415       .  A
C864        C869   1.405       .  A
C865        C866   1.422       .  A
C865        C870   1.449       .  S
C866        C867   1.421       .  A
C866        C873   1.450       .  S
C867        C868   1.418       .  A
C868        C869   1.404       .  A
C868        C871   1.441       .  S
C869        C872   1.455       .  S
C870        N877   1.157       .  T
C871        N876   1.155       .  T
C872        N874   1.157       .  T
C873        N875   1.157       .  T
C878        C879   1.426       .  A
C878        C883   1.431       .  A
C879        C880   1.414       .  A
C879        C884   1.452       .  S
C880        C881   1.408       .  A
C880        C887   1.451       .  S
C881        C882   1.403       .  A
C882        C883   1.413       .  A
C882        C885   1.453       .  S
C883        C886   1.449       .  S
C884        N891   1.158       .  T
C885        N890   1.157       .  T
C886        N888   1.157       .  T
C887        N889   1.157       .  T
C892        C893   1.418       .  A
C892        C897   1.412       .  A
C893        C894   1.420       .  A
C893        C898   1.446       .  S
C894        C895   1.419       .  A
C894        C901   1.451       .  S
C895        C896   1.410       .  A
C896        C897   1.402       .  A
C896        C899   1.453       .  S
C897        C900   1.440       .  S
C898        N905   1.155       .  T
C899        N904   1.157       .  T
C900        N902   1.154       .  T
C901        N903   1.158       .  T
C906        C907   1.416       .  A
C906        C911   1.418       .  A
C907        C908   1.410       .  A
C907        C912   1.452       .  S
C908        C909   1.417       .  A
C908        C915   1.451       .  S
C909        C910   1.413       .  A
C910        C911   1.416       .  A
C910        C913   1.447       .  S
C911        C914   1.451       .  S
C912        N919   1.157       .  T
C913        N918   1.156       .  T
C914        N916   1.158       .  T
C915        N917   1.157       .  T
C920        C921   1.412       .  A
C920        C925   1.411       .  A
C921        C922   1.410       .  A
C921        C926   1.451       .  S
C922       C1234   1.411   1_554  A
C922        C929   1.451       .  S
C923       C1233   1.411       .  A
C923       C1235   1.411       .  A
C924       C1234   1.411   1_554  A
C924        C925   1.409       .  A
C924       C1238   1.451   1_554  S
C925        C928   1.451       .  S
C926        N933   1.157       .  T
C927       C1235   1.451       .  S
C927        N932   1.157       .  T
C928        N930   1.157       .  T
C929       N1242   1.157   1_554  T
N931       C1240   1.157       .  T
C934        C935   1.404       .  A
C934        C939   1.406       .  A
C934       C1217   1.504       .  S
C935        C936   1.406       .  A
C935        H940   1.082       .  S
C936        C937   1.401       .  A
C936       C1206   1.502       .  S
C937        C938   1.403       .  A
C937        H941   1.083       .  S
C938        C939   1.405       .  A
C938       C1231   1.480       .  S
C939        H942   1.083       .  S
C943        C944   1.399       .  A
C943        C948   1.401       .  A
C943       C1192   1.488       .  S
C944        C945   1.404       .  A
C944        H949   1.084       .  S
C945        C946   1.405       .  A
C945       C1234   1.480       .  S
C946        C947   1.402       .  A
C946        H950   1.083       .  S
C947        C948   1.409       .  A
C947       C1175   1.496       .  S
C948        H951   1.084       .  S
C952        C953   1.396       .  A
C952        C957   1.399       .  A
C952       C1136   1.486       .  S
C953        C954   1.406       .  A
C953        H958   1.084       .  S
C954        C955   1.406       .  A
C954       C1147   1.502       .  S
C955        C956   1.406       .  A
C955        H959   1.082       .  S
C956        C957   1.406       .  A
C956       C1164   1.483       .  S
C957        H960   1.084       .  S
C961        C962   1.395   1_545  A
C961        C966   1.405       .  A
C961       C1105   1.485   1_545  S
C962        C963   1.398       .  A
C962        H967   1.084       .  S
C963        C964   1.405       .  A
C963       C1161   1.481       .  S
C964        C965   1.415   1_565  A
C964        H968   1.081       .  S
C965        C966   1.408       .  A
C965       C1122   1.521   1_545  S
C966        H969   1.077       .  S
C970        C971   1.404       .  A
C970        C975   1.402       .  A
C970       C1077   1.496       .  S
C971        C972   1.408       .  A
C971        H976   1.083       .  S
C972        C973   1.407       .  A
C972       C1094   1.490       .  S
C973        C974   1.406       .  A
C973        H977   1.083       .  S
C974        C975   1.410       .  A
C974       C1063   1.504       .  S
C975        H978   1.084       .  S
C979        C980   1.399       .  A
C979        C984   1.403       .  A
C979       C1049   1.493       .  S
C980        C981   1.405       .  A
C980        H985   1.084       .  S
C981        C982   1.409       .  A
C981       C1038   1.504       .  S
C982        C983   1.410       .  A
C982        H986   1.083       .  S
C983        C984   1.409       .  A
C983       C1091   1.491   1_556  S
C984        H987   1.084       .  S
O988      Mn1014   2.103       .  S
C989       C1189   1.517       .  S
C989       O1022   1.276       .  A
C989       O1019   1.268       .  A
O990       Mn997   2.157       .  S
O990      Mn1008   2.121       .  S
O990      Mn1012   2.165       .  S
O991      Mn1025   2.117       .  S
O991       C1001   1.272       .  A
O992      Mn1008   2.096       .  S
O992       C1015   1.273       .  A
O993      Mn1012   2.108       .  S
O993       C1020   1.255       .  A
O994      Mn2269   1.968       .  S
O994      Mn1014   1.955       .  S
O994       C1010   1.213       .  S
C995       C1150   1.507       .  S
C995        O998   1.256       .  A
C995       O1021   1.219       .  S
O996      Mn2260   2.113       .  S
O996       Mn997   2.189       .  S
O996      Mn1030   2.135       .  S
O996      Mn1012   2.176       .  S
Mn997      O2270   2.115       .  S
Mn997      O1002   2.118       .  S
Mn997      O1625   2.177   1_565  S
O998      Mn2256   2.118   1_455  S
O999      Mn1006   2.092       .  S
O999       C1001   1.266       .  A
C1000      C1119   1.503       .  S
C1000      O1026   1.252       .  A
C1000      O1013   1.215       .  S
C1001      C1220   1.497       .  S
O1002      C1027   1.259       .  A
O1003     Mn1619   2.177   1_455  S
O1003     Mn1006   2.110       .  S
O1003     Mn1025   2.117       .  S
O1003     Mn1634   2.168   1_455  S
O1004     Mn1008   1.976       .  S
O1004     Mn1030   1.974       .  S
O1004      C1027   1.224       .  S
C1005      C1080   1.527       .  S
C1005      O2275   1.274       .  A
C1005      O1007   1.273       .  A
Mn1006     O1019   2.083       .  S
O1007     Mn1030   2.107       .  S
Mn1008     O1024   2.092       .  S
Mn1008     O1018   1.976       .  S
O1009     Mn1014   2.100       .  S
C1010      C1066   1.500       .  S
C1010      O1028   1.257       .  A
C1011      C1108   1.485       .  S
C1011      O1024   1.266       .  A
Mn1012     O2242   2.118       .  S
Mn1012     O1625   2.168   1_565  S
O1013     Mn1016   1.959       .  S
Mn1014     O1032   1.961       .  S
C1015      C1133   1.516       .  S
Mn1016     O1023   2.122       .  S
Mn1016     O1031   2.106       .  S
Mn1016     O2240   2.113   1_455  S
Mn1016     O1021   1.984       .  S
C1017      C1052   1.528       .  S
C1017      O2267   1.276       .  A
C1017      O1033   1.272       .  A
O1018     Mn1030   1.960       .  S
O1018      C1020   1.222       .  S
C1020      C1203   1.504       .  S
O1022     Mn1025   2.117       .  S
O1023      C2261   1.276   1_455  A
Mn1025     O2238   1.968   1_455  S
Mn1025     O2276   1.961   1_455  S
O1026     Mn2241   2.115   1_455  S
C1027      C1178   1.503       .  S
O1029      C1034   1.262       .  A
Mn1030     O1033   2.098       .  S
O1031      C2249   1.274   1_455  A
O1032     Mn2269   1.961       .  S
O1032      C1034   1.213       .  S
C1034      C1035   1.508       .  S
C1035      C1036   1.418       .  A
C1035      C1040   1.422       .  A
C1036      C1037   1.422       .  A
C1036      C2285   1.446       .  S
C1037      C1038   1.417       .  A
C1037      C2288   1.450       .  S
C1038      C1039   1.412       .  A
C1039      C1040   1.406       .  A
C1039      C1042   1.454       .  S
C1040      C1043   1.452       .  S
C1041      C2280   1.446       .  S
C1041      N1048   1.156       .  T
C1042      N1047   1.157       .  T
C1043      N1045   1.158       .  T
C1044      C2281   1.450       .  S
C1044      N1046   1.157       .  T
C1049      C2294   1.404       .  A
C1049      C1054   1.407       .  A
C1050      C2293   1.404   1_455  A
C1050      C1051   1.414       .  A
C1050      C1055   1.455       .  S
C1051      C2296   1.429   1_455  A
C1051      C1058   1.445       .  S
C1052      C2295   1.429       .  A
C1052      C1053   1.434       .  A
C1053      C1054   1.419       .  A
C1053      C1056   1.452       .  S
C1054      C1057   1.453       .  S
C1055      N1062   1.157       .  T
C1056      N1061   1.158       .  T
C1057      N1059   1.157       .  T
C1058      N1060   1.155       .  T
C1063      C1064   1.419       .  A
C1063      C2312   1.413       .  A
C1064      C1065   1.421       .  A
C1064      C1069   1.450       .  S
C1065      C1066   1.418       .  A
C1065      C1072   1.451       .  S
C1066      C2311   1.421       .  A
C1067      C2310   1.421   1_455  A
C1067      C1068   1.405   1_455  A
C1067      C1070   1.452       .  S
C1068      C2307   1.413       .  A
C1068      C1071   1.454   1_655  S
C1069      N1076   1.158       .  T
C1070      N1075   1.158       .  T
C1071      N1073   1.157       .  T
C1072      N1074   1.158       .  T
C1077      C2322   1.408       .  A
C1077      C1082   1.405       .  A
C1078      C2321   1.408   1_455  A
C1078      C1079   1.417       .  A
C1078      C1083   1.452       .  S
C1079      C2324   1.431   1_455  A
C1079      C1086   1.452       .  S
C1080      C2323   1.431       .  A
C1080      C1081   1.433       .  A
C1081      C1082   1.418       .  A
C1081      C1084   1.451       .  S
C1082      C1085   1.452       .  S
C1083      N1090   1.157       .  T
C1084      N1089   1.158       .  T
C1085      N1087   1.157       .  T
C1086      N1088   1.158       .  T
C1092      C1093   1.413       .  A
C1093      C1094   1.412       .  A
C1093      C1100   1.450       .  S
C1094      C1095   1.413       .  A
C1095      C1096   1.414       .  A
C1095      C1098   1.451       .  S
C1096      C1099   1.449       .  S
C1097      N1104   1.157   1_554  T
C1098      N1103   1.157       .  T
C1100      N2346   1.157       .  T
N1102      C2344   1.157       .  T
C1105      C1106   1.409   1_565  A
C1105      C1110   1.409       .  A
C1106      C1107   1.414       .  A
C1106      C1111   1.448       .  S
C1107      C1108   1.415   1_545  A
C1107      C1114   1.444       .  S
C1108      C1109   1.412       .  A
C1109      C1110   1.401       .  A
C1109      C1112   1.449       .  S
C1110      C1113   1.452       .  S
C1112      N1117   1.157       .  T
C1113      N1115   1.158       .  T
C1119      C1120   1.415       .  A
C1119      C1124   1.417       .  A
C1120      C1121   1.415   1_565  A
C1120      C1125   1.449       .  S
C1121      C1122   1.421   1_545  A
C1121      C1128   1.452       .  S
C1122      C1123   1.429       .  A
C1123      C1124   1.409       .  A
C1123      C1126   1.450       .  S
C1124      C1127   1.458       .  S
C1125      N1132   1.157       .  T
C1126      N1131   1.158       .  T
C1127      N1129   1.158       .  T
C1128      N1130   1.158       .  T
C1133      C1134   1.428   1_565  A
C1133      C1138   1.425       .  A
C1134      C1135   1.416       .  A
C1135      C1136   1.410   1_545  A
C1136      C1137   1.404       .  A
C1137      C1138   1.410       .  A
C1137      C1140   1.453       .  S
C1138      C1141   1.447       .  S
C1139      N1146   1.158       .  T
C1140      N1145   1.157       .  T
C1141      N1143   1.156       .  T
C1142      N1144   1.158       .  T
C1147      C1148   1.417       .  A
C1147      C1152   1.412   1_565  A
C1148      C1149   1.416       .  A
C1148      C1153   1.449       .  S
C1149      C1150   1.418       .  A
C1149      C1156   1.447       .  S
C1150      C1151   1.425       .  A
C1151      C1152   1.404   1_565  A
C1153      N1160   1.157       .  T
C1154      N1159   1.156       .  T
C1155      N1157   1.158       .  T
C1156      N2402   1.157       .  T
N1158      C2400   1.157       .  T
C1162      C1163   1.410       .  A
C1163      C1164   1.414       .  A
C1163      C1170   1.451       .  S
C1165      C1166   1.409       .  A
C1165      C1168   1.451       .  S
C1166      C1169   1.452       .  S
C1167      N1174   1.157       .  T
C1168      N1173   1.157       .  T
C1170      N1172   1.157       .  T
C1175      C1176   1.415       .  A
C1175      C1180   1.405       .  A
C1176      C1177   1.422       .  A
C1176      C1181   1.449       .  S
C1177      C1178   1.421       .  A
C1177      C1184   1.450       .  S
C1178      C1179   1.418       .  A
C1179      C1180   1.404       .  A
C1179      C1182   1.441       .  S
C1180      C1183   1.455       .  S
C1181      N1188   1.157       .  T
C1182      N1187   1.155       .  T
C1183      N1185   1.157       .  T
C1184      N1186   1.157       .  T
C1189      C1190   1.426       .  A
C1189      C1194   1.431       .  A
C1190      C1191   1.414       .  A
C1190      C1195   1.452       .  S
C1191      C1192   1.408       .  A
C1191      C1198   1.451       .  S
C1192      C1193   1.403       .  A
C1193      C1194   1.413       .  A
C1193      C1196   1.453       .  S
C1194      C1197   1.449       .  S
C1195      N1202   1.158       .  T
C1196      N1201   1.157       .  T
C1197      N1199   1.157       .  T
C1198      N1200   1.157       .  T
C1203      C1204   1.418       .  A
C1203      C1208   1.412       .  A
C1204      C1205   1.420       .  A
C1204      C1209   1.446       .  S
C1205      C1206   1.419       .  A
C1205      C1212   1.451       .  S
C1206      C1207   1.410       .  A
C1207      C1208   1.402       .  A
C1207      C1210   1.453       .  S
C1208      C1211   1.440       .  S
C1209      N1216   1.155       .  T
C1210      N1215   1.157       .  T
C1211      N1213   1.154       .  T
C1212      N1214   1.158       .  T
C1217      C1218   1.416       .  A
C1217      C1222   1.418       .  A
C1218      C1219   1.410       .  A
C1218      C1223   1.452       .  S
C1219      C1220   1.417       .  A
C1219      C1226   1.451       .  S
C1220      C1221   1.413       .  A
C1221      C1222   1.416       .  A
C1221      C1224   1.447       .  S
C1222      C1225   1.451       .  S
C1223      N1230   1.157       .  T
C1224      N1229   1.156       .  T
C1225      N1227   1.158       .  T
C1226      N1228   1.157       .  T
C1231      C1232   1.412       .  A
C1231      C1236   1.411       .  A
C1232      C1233   1.410       .  A
C1232      C1237   1.451       .  S
C1233      C1240   1.451       .  S
C1235      C1236   1.409       .  A
C1236      C1239   1.451       .  S
C1237      N1244   1.157       .  T
C1238      N1243   1.157       .  T
C1239      N1241   1.157       .  T
C1245      C1246   1.404       .  A
C1245      C1250   1.406       .  A
C1245      C1528   1.504       .  S
C1246      C1247   1.406       .  A
C1246      H1251   1.082       .  S
C1247      C1248   1.401       .  A
C1247      C1517   1.502       .  S
C1248      C1249   1.403       .  A
C1248      H1252   1.083       .  S
C1249      C1250   1.405       .  A
C1249      C1542   1.480       .  S
C1250      H1253   1.083       .  S
C1254      C1255   1.399       .  A
C1254      C1259   1.401       .  A
C1254      C1503   1.488       .  S
C1255      C1256   1.404       .  A
C1255      H1260   1.084       .  S
C1256      C1257   1.405       .  A
C1256      C1545   1.480       .  S
C1257      C1258   1.402       .  A
C1257      H1261   1.083       .  S
C1258      C1259   1.409       .  A
C1258      C1486   1.496       .  S
C1259      H1262   1.084       .  S
C1263      C1264   1.396       .  A
C1263      C1268   1.399       .  A
C1263      C1447   1.486       .  S
C1264      C1265   1.406       .  A
C1264      H1269   1.084       .  S
C1265      C1266   1.406       .  A
C1265      C1458   1.502       .  S
C1266      C1267   1.406       .  A
C1266      H1270   1.082       .  S
C1267      C1268   1.406       .  A
C1267      C1475   1.483       .  S
C1268      H1271   1.084       .  S
C1272      C1273   1.395       .  A
C1272      C1277   1.405       .  A
C1272      C1416   1.485       .  S
C1273      C1274   1.398       .  A
C1273      H1278   1.084       .  S
C1274      C1275   1.405       .  A
C1274      C1472   1.481       .  S
C1275      C1276   1.415       .  A
C1275      H1279   1.081       .  S
C1276      C1277   1.408       .  A
C1276      C1433   1.521       .  S
C1277      H1280   1.077       .  S
C1281      C1282   1.404       .  A
C1281      C1286   1.402       .  A
C1281      C1388   1.496       .  S
C1282      C1283   1.408       .  A
C1282      H1287   1.083       .  S
C1283      C1284   1.407       .  A
C1283      C1405   1.490       .  S
C1284      C1285   1.406       .  A
C1284      H1288   1.083       .  S
C1285      C1286   1.410       .  A
C1285      C1374   1.504       .  S
C1286      H1289   1.084       .  S
C1290      C1291   1.399       .  A
C1290      C1295   1.403       .  A
C1290      C1360   1.493       .  S
C1291      C1292   1.405       .  A
C1291      H1296   1.084       .  S
C1292      C1293   1.409       .  A
C1292      C1349   1.504       .  S
C1293      C1294   1.410       .  A
C1293      H1297   1.083       .  S
C1294      C1295   1.409       .  A
C1294      C1402   1.491       .  S
C1295      H1298   1.084       .  S
O1299     Mn1325   2.103       .  S
O1299      C1948   1.272   1_545  A
C1300      C1500   1.517       .  S
C1300      O1333   1.276       .  A
C1300      O1330   1.268       .  A
O1301     Mn1308   2.157       .  S
O1301     Mn1319   2.121       .  S
O1301     Mn1323   2.165       .  S
O1301     Mn1947   2.128       .  S
O1302     Mn1336   2.117       .  S
O1302      C1312   1.272       .  A
O1303     Mn1319   2.096       .  S
O1303      C1326   1.273       .  A
O1304     Mn1323   2.108       .  S
O1304      C1331   1.255       .  A
O1305     Mn1325   1.955       .  S
O1305      C1321   1.213       .  S
C1306      C1461   1.507       .  S
C1306      O1309   1.256       .  A
C1306      O1332   1.219       .  S
O1307     Mn1308   2.189       .  S
O1307     Mn1341   2.135       .  S
O1307     Mn1323   2.176       .  S
Mn1308     O1313   2.118       .  S
Mn1308     O1962   2.152       .  S
O1310     Mn1317   2.092       .  S
O1310      C1312   1.266       .  A
C1311      C1430   1.503       .  S
C1311      O1337   1.252       .  A
C1311      O1324   1.215       .  S
C1312      C1531   1.497       .  S
O1313      C1338   1.259       .  A
O1314     Mn1317   2.110       .  S
O1314     Mn1336   2.117       .  S
O1315     Mn1319   1.976       .  S
O1315     Mn1341   1.974       .  S
O1315      C1338   1.224       .  S
C1316      C1391   1.527       .  S
C1316      O1318   1.273       .  A
Mn1317     O1330   2.083       .  S
Mn1317     O1954   1.951   1_545  S
Mn1317     O1946   1.945   1_545  S
O1318     Mn1341   2.107       .  S
Mn1319     O1335   2.092       .  S
Mn1319     O1329   1.976       .  S
O1320     Mn1325   2.100       .  S
O1320      C1944   1.267   1_545  A
C1321      C1377   1.500       .  S
C1321      O1339   1.257       .  A
C1322      C1419   1.485       .  S
C1322      O1942   1.267       .  A
C1322      O1335   1.266       .  A
Mn1323     O1961   2.132       .  S
O1324     Mn1939   1.945       .  S
O1324     Mn1327   1.959       .  S
Mn1325     O1923   2.128   1_545  S
Mn1325     O1343   1.961       .  S
C1326      C1444   1.516       .  S
C1326      O1921   1.272       .  A
Mn1327     O1334   2.122       .  S
Mn1327     O1342   2.106       .  S
Mn1327     O1332   1.984       .  S
C1328      C1363   1.528       .  S
C1328      O1344   1.272       .  A
O1329     Mn1341   1.960       .  S
O1329      C1331   1.222       .  S
C1331      C1514   1.504       .  S
O1332     Mn1939   1.951       .  S
O1333     Mn1336   2.117       .  S
C1338      C1489   1.503       .  S
O1339     Mn1945   2.132   1_545  S
O1340     Mn1930   2.152   1_545  S
O1340      C1345   1.262       .  A
Mn1341     O1344   2.098       .  S
O1343      C1345   1.213       .  S
C1345      C1346   1.508       .  S
C1346      C1347   1.418   1_655  A
C1346      C1351   1.422       .  A
C1347      C1348   1.422       .  A
C1348      C1349   1.417   1_455  A
C1349      C1350   1.412       .  A
C1350      C1351   1.406       .  A
C1350      C1353   1.454       .  S
C1351      C1354   1.452       .  S
C1352      N1359   1.156       .  T
C1353      N1358   1.157       .  T
C1354      N1356   1.158       .  T
C1355      N1357   1.157       .  T
C1360      C1365   1.407       .  A
C1361      C1362   1.414       .  A
C1361      C1366   1.455       .  S
C1362      C1369   1.445       .  S
C1363      C1364   1.434       .  A
C1364      C1365   1.419       .  A
C1364      C1367   1.452       .  S
C1365      C1368   1.453       .  S
C1366      N1373   1.157       .  T
C1367      N1372   1.158       .  T
C1368      N1370   1.157       .  T
C1369      N1371   1.155       .  T
C1374      C1375   1.419       .  A
C1375      C1376   1.421       .  A
C1375      C1380   1.450       .  S
C1376      C1377   1.418       .  A
C1376      C1383   1.451       .  S
C1378      C1379   1.405       .  A
C1378      C1381   1.452       .  S
C1379      C1382   1.454       .  S
C1380      N1387   1.158       .  T
C1381      N1386   1.158       .  T
C1382      N1384   1.157       .  T
C1383      N1385   1.158   1_545  T
C1388      C1393   1.405       .  A
C1389      C1390   1.417       .  A
C1389      C1394   1.452       .  S
C1390      C1397   1.452       .  S
C1391      C1392   1.433       .  A
C1392      C1393   1.418       .  A
C1392      C1395   1.451       .  S
C1393      C1396   1.452       .  S
C1394      N1401   1.157       .  T
C1395      N1400   1.158       .  T
C1396      N1398   1.157       .  T
C1397      N1399   1.158       .  T
C1402      C1714   1.413   1_655  A
C1402      C1718   1.412       .  A
C1403      C1713   1.413   1_455  A
C1403      C1404   1.413       .  A
C1403      C1719   1.451       .  S
C1404      C1405   1.412   1_455  A
C1404      C1411   1.450       .  S
C1405      C1406   1.413       .  A
C1406      C1407   1.414       .  A
C1406      C1409   1.451       .  S
C1407      C1713   1.412       .  A
C1407      C1410   1.449   1_554  S
C1408      C1714   1.451       .  S
C1408      N1415   1.157       .  T
C1409      N1414   1.157       .  T
C1410      N1723   1.157       .  T
N1412      C1721   1.157       .  T
C1416      C1417   1.409       .  A
C1416      C1421   1.409       .  A
C1417      C1418   1.414       .  A
C1417      C1422   1.448       .  S
C1418      C1419   1.415       .  A
C1418      C1425   1.444       .  S
C1419      C1420   1.412       .  A
C1420      C1421   1.401       .  A
C1420      C1423   1.449       .  S
C1421      C1424   1.452       .  S
C1422      N2051   1.157       .  T
C1423      N1428   1.157       .  T
C1424      N1426   1.158       .  T
C1425      N2049   1.156       .  T
N1427      C2047   1.156       .  T
N1429      C2044   1.157       .  T
C1430      C1431   1.415       .  A
C1430      C1435   1.417       .  A
C1431      C1432   1.415       .  A
C1431      C1436   1.449       .  S
C1432      C1433   1.421       .  A
C1432      C1439   1.452       .  S
C1433      C1434   1.429       .  A
C1434      C1435   1.409       .  A
C1434      C1437   1.450       .  S
C1435      C1438   1.458       .  S
C1436      N1443   1.157       .  T
C1437      N1442   1.158       .  T
C1438      N1440   1.158       .  T
C1439      N1441   1.158       .  T
C1444      C1445   1.428       .  A
C1444      C1449   1.425       .  A
C1445      C1446   1.416       .  A
C1445      C2072   1.451       .  S
C1446      C1447   1.410       .  A
C1446      C2075   1.454       .  S
C1447      C1448   1.404       .  A
C1448      C1449   1.410       .  A
C1448      C1451   1.453       .  S
C1449      C1452   1.447       .  S
C1450      C2067   1.451       .  S
C1450      N1457   1.158       .  T
C1451      N1456   1.157       .  T
C1452      N1454   1.156       .  T
C1453      C2068   1.454       .  S
C1453      N1455   1.158       .  T
C1458      C1459   1.417       .  A
C1458      C1463   1.412       .  A
C1459      C1460   1.416       .  A
C1459      C1464   1.449       .  S
C1460      C1461   1.418       .  A
C1460      C1467   1.447       .  S
C1461      C1462   1.425       .  A
C1462      C1463   1.404       .  A
C1462      C2087   1.448       .  S
C1463      C2088   1.457       .  S
C1464      N1471   1.157       .  T
C1465      C2084   1.448   1_545  S
C1465      N1470   1.156       .  T
C1466      C2085   1.457       .  S
C1466      N1468   1.158       .  T
C1472      C1784   1.409       .  A
C1472      C2410   1.413       .  A
C1473      C1783   1.409   1_554  A
C1473      C1474   1.410       .  A
C1473      C1789   1.451   1_554  S
C1474      C1475   1.414       .  A
C1474      C1481   1.451       .  S
C1475      C2098   1.411       .  A
C1476      C2097   1.411   1_545  A
C1476      C1477   1.409       .  A
C1476      C1479   1.451       .  S
C1477      C2405   1.413   1_544  A
C1477      C1480   1.452   1_554  S
C1478      C1784   1.451       .  S
C1478      N1485   1.157       .  T
C1479      N1484   1.157       .  T
C1480      N1793   1.157       .  T
C1481      N1483   1.157       .  T
N1482      C1791   1.157       .  T
C1486      C1487   1.415       .  A
C1486      C1491   1.405       .  A
C1487      C1488   1.422       .  A
C1487      C1492   1.449       .  S
C1488      C1489   1.421       .  A
C1488      C1495   1.450       .  S
C1489      C1490   1.418       .  A
C1490      C1491   1.404       .  A
C1490      C1493   1.441       .  S
C1491      C1494   1.455       .  S
C1492      N1499   1.157       .  T
C1493      N1498   1.155       .  T
C1494      N1496   1.157       .  T
C1495      N1497   1.157       .  T
C1500      C1501   1.426       .  A
C1500      C1505   1.431       .  A
C1501      C1502   1.414       .  A
C1501      C1506   1.452       .  S
C1502      C1503   1.408       .  A
C1502      C1509   1.451       .  S
C1503      C1504   1.403       .  A
C1504      C1505   1.413       .  A
C1504      C1507   1.453       .  S
C1505      C1508   1.449       .  S
C1506      N1513   1.158       .  T
C1507      N1512   1.157       .  T
C1508      N1510   1.157       .  T
C1509      N1511   1.157       .  T
C1514      C1515   1.418       .  A
C1514      C1519   1.412       .  A
C1515      C1516   1.420       .  A
C1515      C1520   1.446       .  S
C1516      C1517   1.419       .  A
C1516      C1523   1.451       .  S
C1517      C1518   1.410       .  A
C1518      C1519   1.402       .  A
C1518      C1521   1.453       .  S
C1519      C1522   1.440       .  S
C1520      N1527   1.155       .  T
C1521      N1526   1.157       .  T
C1522      N1524   1.154       .  T
C1523      N1525   1.158       .  T
C1528      C1529   1.416       .  A
C1528      C1533   1.418       .  A
C1529      C1530   1.410       .  A
C1529      C1534   1.452       .  S
C1530      C1531   1.417       .  A
C1530      C1537   1.451       .  S
C1531      C1532   1.413       .  A
C1532      C1533   1.416       .  A
C1532      C1535   1.447       .  S
C1533      C1536   1.451       .  S
C1534      N1541   1.157       .  T
C1535      N1540   1.156       .  T
C1536      N1538   1.158       .  T
C1537      N1539   1.157       .  T
C1542      C1543   1.412       .  A
C1542      C1547   1.411       .  A
C1543      C1544   1.410       .  A
C1543      C1548   1.451       .  S
C1544      C1856   1.411   1_554  A
C1544      C1551   1.451       .  S
C1545      C1855   1.411       .  A
C1545      C1857   1.411       .  A
C1546      C1856   1.411   1_554  A
C1546      C1547   1.409       .  A
C1546      C1860   1.451   1_554  S
C1547      C1550   1.451       .  S
C1548      N1555   1.157       .  T
C1549      C1857   1.451       .  S
C1549      N1554   1.157       .  T
C1550      N1552   1.157       .  T
C1551      N1864   1.157   1_554  T
N1553      C1862   1.157       .  T
C1556      C1557   1.404       .  A
C1556      C1561   1.406       .  A
C1556      C1839   1.504       .  S
C1557      C1558   1.406       .  A
C1557      H1562   1.082       .  S
C1558      C1559   1.401       .  A
C1558      C1828   1.502       .  S
C1559      C1560   1.403       .  A
C1559      H1563   1.083       .  S
C1560      C1561   1.405       .  A
C1560      C1853   1.480       .  S
C1561      H1564   1.083       .  S
C1565      C1566   1.399       .  A
C1565      C1570   1.401       .  A
C1565      C1814   1.488       .  S
C1566      C1567   1.404       .  A
C1566      H1571   1.084       .  S
C1567      C1568   1.405       .  A
C1567      C1856   1.480       .  S
C1568      C1569   1.402       .  A
C1568      H1572   1.083       .  S
C1569      C1570   1.409       .  A
C1569      C1797   1.496       .  S
C1570      H1573   1.084       .  S
C1574      C1575   1.396       .  A
C1574      C1579   1.399       .  A
C1574      C1758   1.486       .  S
C1575      C1576   1.406       .  A
C1575      H1580   1.084       .  S
C1576      C1577   1.406       .  A
C1576      C1769   1.502       .  S
C1577      C1578   1.406       .  A
C1577      H1581   1.082       .  S
C1578      C1579   1.406       .  A
C1578      C1786   1.483       .  S
C1579      H1582   1.084       .  S
C1583      C1584   1.395       .  A
C1583      C1588   1.405       .  A
C1583      C1727   1.485       .  S
C1584      C1585   1.398       .  A
C1584      H1589   1.084       .  S
C1585      C1586   1.405       .  A
C1585      C1783   1.481       .  S
C1586      C1587   1.415       .  A
C1586      H1590   1.081       .  S
C1587      C1588   1.408       .  A
C1587      C1744   1.521       .  S
C1588      H1591   1.077       .  S
C1592      C1593   1.404       .  A
C1592      C1597   1.402       .  A
C1592      C1699   1.496       .  S
C1593      C1594   1.408       .  A
C1593      H1598   1.083       .  S
C1594      C1595   1.407       .  A
C1594      C1716   1.490       .  S
C1595      C1596   1.406       .  A
C1595      H1599   1.083       .  S
C1596      C1597   1.410       .  A
C1596      C1685   1.504       .  S
C1597      H1600   1.084       .  S
C1601      C1602   1.399       .  A
C1601      C1606   1.403       .  A
C1601      C1671   1.493       .  S
C1602      C1603   1.405       .  A
C1602      H1607   1.084       .  S
C1603      C1604   1.409       .  A
C1603      C1660   1.504       .  S
C1604      C1605   1.410       .  A
C1604      H1608   1.083       .  S
C1605      C1606   1.409       .  A
C1605      C1713   1.491   1_556  S
C1606      H1609   1.084       .  S
O1610     Mn1636   2.103       .  S
O1610      C2259   1.272   1_545  A
C1611      C1811   1.517       .  S
C1611      O1644   1.276       .  A
C1611      O1641   1.268       .  A
O1612     Mn1619   2.157       .  S
O1612     Mn1630   2.121       .  S
O1612     Mn1634   2.165       .  S
O1612     Mn2258   2.128       .  S
O1613     Mn1647   2.117       .  S
O1613      C1623   1.272       .  A
O1614     Mn1630   2.096       .  S
O1614      C1637   1.273       .  A
O1615     Mn1634   2.108       .  S
O1615      C1642   1.255       .  A
O1616     Mn1636   1.955       .  S
O1616      C1632   1.213       .  S
C1617      C1772   1.507       .  S
C1617      O1620   1.256       .  A
C1617      O1643   1.219       .  S
O1618     Mn1619   2.189       .  S
O1618     Mn1652   2.135       .  S
O1618     Mn1634   2.176       .  S
Mn1619     O1624   2.118       .  S
Mn1619     O2273   2.152       .  S
O1621     Mn1628   2.092       .  S
O1621      C1623   1.266       .  A
C1622      C1741   1.503       .  S
C1622      O1648   1.252       .  A
C1622      O1635   1.215       .  S
C1623      C1842   1.497       .  S
O1624      C1649   1.259       .  A
O1625     Mn1628   2.110       .  S
O1625     Mn1647   2.117       .  S
O1626     Mn1630   1.976       .  S
O1626     Mn1652   1.974       .  S
O1626      C1649   1.224       .  S
C1627      C1702   1.527       .  S
C1627      O1629   1.273       .  A
Mn1628     O1641   2.083       .  S
Mn1628     O2265   1.951   1_545  S
Mn1628     O2257   1.945   1_545  S
O1629     Mn1652   2.107       .  S
Mn1630     O1646   2.092       .  S
Mn1630     O1640   1.976       .  S
O1631     Mn1636   2.100       .  S
O1631      C2255   1.267   1_545  A
C1632      C1688   1.500       .  S
C1632      O1650   1.257       .  A
C1633      C1730   1.485       .  S
C1633      O2253   1.267       .  A
C1633      O1646   1.266       .  A
Mn1634     O2272   2.132       .  S
O1635     Mn2250   1.945       .  S
O1635     Mn1638   1.959       .  S
Mn1636     O2234   2.128   1_545  S
Mn1636     O1654   1.961       .  S
C1637      C1755   1.516       .  S
C1637      O2232   1.272       .  A
Mn1638     O1645   2.122       .  S
Mn1638     O1653   2.106       .  S
Mn1638     O1643   1.984       .  S
C1639      C1674   1.528       .  S
C1639      O1655   1.272       .  A
O1640     Mn1652   1.960       .  S
O1640      C1642   1.222       .  S
C1642      C1825   1.504       .  S
O1643     Mn2250   1.951       .  S
O1644     Mn1647   2.117       .  S
C1649      C1800   1.503       .  S
O1650     Mn2256   2.132   1_545  S
O1651     Mn2241   2.152   1_545  S
O1651      C1656   1.262       .  A
Mn1652     O1655   2.098       .  S
O1654      C1656   1.213       .  S
C1656      C1657   1.508       .  S
C1657      C1658   1.418   1_655  A
C1657      C1662   1.422       .  A
C1658      C1659   1.422       .  A
C1659      C1660   1.417   1_455  A
C1660      C1661   1.412       .  A
C1661      C1662   1.406       .  A
C1661      C1664   1.454       .  S
C1662      C1665   1.452       .  S
C1663      N1670   1.156       .  T
C1664      N1669   1.157       .  T
C1665      N1667   1.158       .  T
C1666      N1668   1.157       .  T
C1671      C1676   1.407       .  A
C1672      C1673   1.414       .  A
C1672      C1677   1.455       .  S
C1673      C1680   1.445       .  S
C1674      C1675   1.434       .  A
C1675      C1676   1.419       .  A
C1675      C1678   1.452       .  S
C1676      C1679   1.453       .  S
C1677      N1684   1.157       .  T
C1678      N1683   1.158       .  T
C1679      N1681   1.157       .  T
C1680      N1682   1.155       .  T
C1685      C1686   1.419       .  A
C1686      C1687   1.421       .  A
C1686      C1691   1.450       .  S
C1687      C1688   1.418       .  A
C1687      C1694   1.451       .  S
C1689      C1690   1.405       .  A
C1689      C1692   1.452       .  S
C1690      C1693   1.454       .  S
C1691      N1698   1.158       .  T
C1692      N1697   1.158       .  T
C1693      N1695   1.157       .  T
C1694      N1696   1.158   1_545  T
C1699      C1704   1.405       .  A
C1700      C1701   1.417       .  A
C1700      C1705   1.452       .  S
C1701      C1708   1.452       .  S
C1702      C1703   1.433       .  A
C1703      C1704   1.418       .  A
C1703      C1706   1.451       .  S
C1704      C1707   1.452       .  S
C1705      N1712   1.157       .  T
C1706      N1711   1.158       .  T
C1707      N1709   1.157       .  T
C1708      N1710   1.158       .  T
C1714      C1715   1.413       .  A
C1715      C1716   1.412   1_455  A
C1715      C1722   1.450       .  S
C1716      C1717   1.413       .  A
C1717      C1718   1.414       .  A
C1717      C1720   1.451       .  S
C1718      C1721   1.449       .  S
C1719      N1726   1.157   1_554  T
C1720      N1725   1.157       .  T
C1727      C1728   1.409       .  A
C1727      C1732   1.409       .  A
C1728      C1729   1.414       .  A
C1728      C1733   1.448       .  S
C1729      C1730   1.415       .  A
C1729      C1736   1.444       .  S
C1730      C1731   1.412       .  A
C1731      C1732   1.401       .  A
C1731      C1734   1.449       .  S
C1732      C1735   1.452       .  S
C1733      N2362   1.157       .  T
C1734      N1739   1.157       .  T
C1735      N1737   1.158       .  T
C1736      N2360   1.156       .  T
N1738      C2358   1.156       .  T
N1740      C2355   1.157       .  T
C1741      C1742   1.415       .  A
C1741      C1746   1.417       .  A
C1742      C1743   1.415       .  A
C1742      C1747   1.449       .  S
C1743      C1744   1.421       .  A
C1743      C1750   1.452       .  S
C1744      C1745   1.429       .  A
C1745      C1746   1.409       .  A
C1745      C1748   1.450       .  S
C1746      C1749   1.458       .  S
C1747      N1754   1.157       .  T
C1748      N1753   1.158       .  T
C1749      N1751   1.158       .  T
C1750      N1752   1.158       .  T
C1755      C1756   1.428       .  A
C1755      C1760   1.425       .  A
C1756      C1757   1.416       .  A
C1756      C2383   1.451       .  S
C1757      C1758   1.410       .  A
C1757      C2386   1.454       .  S
C1758      C1759   1.404       .  A
C1759      C1760   1.410       .  A
C1759      C1762   1.453       .  S
C1760      C1763   1.447       .  S
C1761      C2378   1.451       .  S
C1761      N1768   1.158       .  T
C1762      N1767   1.157       .  T
C1763      N1765   1.156       .  T
C1764      C2379   1.454       .  S
C1764      N1766   1.158       .  T
C1769      C1770   1.417       .  A
C1769      C1774   1.412       .  A
C1770      C1771   1.416       .  A
C1770      C1775   1.449       .  S
C1771      C1772   1.418       .  A
C1771      C1778   1.447       .  S
C1772      C1773   1.425       .  A
C1773      C1774   1.404       .  A
C1773      C2398   1.448       .  S
C1774      C2399   1.457       .  S
C1775      N1782   1.157       .  T
C1776      C2395   1.448   1_545  S
C1776      N1781   1.156       .  T
C1777      C2396   1.457       .  S
C1777      N1779   1.158       .  T
C1783      C2099   1.413   1_556  A
C1784      C1785   1.410       .  A
C1785      C1786   1.414       .  A
C1785      C1792   1.451       .  S
C1786      C2409   1.411       .  A
C1787      C2408   1.411   1_545  A
C1787      C1788   1.409       .  A
C1787      C1790   1.451       .  S
C1788      C2094   1.413   1_545  A
C1788      C1791   1.452       .  S
C1789      N1796   1.157       .  T
C1790      N1795   1.157       .  T
C1792      N1794   1.157       .  T
C1797      C1798   1.415       .  A
C1797      C1802   1.405       .  A
C1798      C1799   1.422       .  A
C1798      C1803   1.449       .  S
C1799      C1800   1.421       .  A
C1799      C1806   1.450       .  S
C1800      C1801   1.418       .  A
C1801      C1802   1.404       .  A
C1801      C1804   1.441       .  S
C1802      C1805   1.455       .  S
C1803      N1810   1.157       .  T
C1804      N1809   1.155       .  T
C1805      N1807   1.157       .  T
C1806      N1808   1.157       .  T
C1811      C1812   1.426       .  A
C1811      C1816   1.431       .  A
C1812      C1813   1.414       .  A
C1812      C1817   1.452       .  S
C1813      C1814   1.408       .  A
C1813      C1820   1.451       .  S
C1814      C1815   1.403       .  A
C1815      C1816   1.413       .  A
C1815      C1818   1.453       .  S
C1816      C1819   1.449       .  S
C1817      N1824   1.158       .  T
C1818      N1823   1.157       .  T
C1819      N1821   1.157       .  T
C1820      N1822   1.157       .  T
C1825      C1826   1.418       .  A
C1825      C1830   1.412       .  A
C1826      C1827   1.420       .  A
C1826      C1831   1.446       .  S
C1827      C1828   1.419       .  A
C1827      C1834   1.451       .  S
C1828      C1829   1.410       .  A
C1829      C1830   1.402       .  A
C1829      C1832   1.453       .  S
C1830      C1833   1.440       .  S
C1831      N1838   1.155       .  T
C1832      N1837   1.157       .  T
C1833      N1835   1.154       .  T
C1834      N1836   1.158       .  T
C1839      C1840   1.416       .  A
C1839      C1844   1.418       .  A
C1840      C1841   1.410       .  A
C1840      C1845   1.452       .  S
C1841      C1842   1.417       .  A
C1841      C1848   1.451       .  S
C1842      C1843   1.413       .  A
C1843      C1844   1.416       .  A
C1843      C1846   1.447       .  S
C1844      C1847   1.451       .  S
C1845      N1852   1.157       .  T
C1846      N1851   1.156       .  T
C1847      N1849   1.158       .  T
C1848      N1850   1.157       .  T
C1853      C1854   1.412       .  A
C1853      C1858   1.411       .  A
C1854      C1855   1.410       .  A
C1854      C1859   1.451       .  S
C1855      C1862   1.451       .  S
C1857      C1858   1.409       .  A
C1858      C1861   1.451       .  S
C1859      N1866   1.157       .  T
C1860      N1865   1.157       .  T
C1861      N1863   1.157       .  T
C1867      C1868   1.404       .  A
C1867      C1872   1.406       .  A
C1867      C2150   1.504       .  S
C1868      C1869   1.406       .  A
C1868      H1873   1.082       .  S
C1869      C1870   1.401       .  A
C1869      C2139   1.502       .  S
C1870      C1871   1.403       .  A
C1870      H1874   1.083       .  S
C1871      C1872   1.405       .  A
C1871      C2164   1.480       .  S
C1872      H1875   1.083       .  S
C1876      C1877   1.399       .  A
C1876      C1881   1.401       .  A
C1876      C2125   1.488       .  S
C1877      C1878   1.404       .  A
C1877      H1882   1.084       .  S
C1878      C1879   1.405       .  A
C1878      C2167   1.480       .  S
C1879      C1880   1.402       .  A
C1879      H1883   1.083       .  S
C1880      C1881   1.409       .  A
C1880      C2108   1.496       .  S
C1881      H1884   1.084       .  S
C1885      C1886   1.396       .  A
C1885      C1890   1.399       .  A
C1885      C2069   1.486       .  S
C1886      C1887   1.406       .  A
C1886      H1891   1.084       .  S
C1887      C1888   1.406       .  A
C1887      C2080   1.502       .  S
C1888      C1889   1.406       .  A
C1888      H1892   1.082       .  S
C1889      C1890   1.406       .  A
C1889      C2097   1.483       .  S
C1890      H1893   1.084       .  S
C1894      C1895   1.395   1_545  A
C1894      C1899   1.405       .  A
C1894      C2038   1.485   1_545  S
C1895      C1896   1.398       .  A
C1895      H1900   1.084       .  S
C1896      C1897   1.405       .  A
C1896      C2094   1.481       .  S
C1897      C1898   1.415   1_565  A
C1897      H1901   1.081       .  S
C1898      C1899   1.408       .  A
C1898      C2055   1.521   1_545  S
C1899      H1902   1.077       .  S
C1903      C1904   1.404       .  A
C1903      C1908   1.402       .  A
C1903      C2010   1.496       .  S
C1904      C1905   1.408       .  A
C1904      H1909   1.083       .  S
C1905      C1906   1.407       .  A
C1905      C2027   1.490       .  S
C1906      C1907   1.406       .  A
C1906      H1910   1.083       .  S
C1907      C1908   1.410       .  A
C1907      C1996   1.504       .  S
C1908      H1911   1.084       .  S
C1912      C1913   1.399       .  A
C1912      C1917   1.403       .  A
C1912      C1982   1.493       .  S
C1913      C1914   1.405       .  A
C1913      H1918   1.084       .  S
C1914      C1915   1.409       .  A
C1914      C1971   1.504       .  S
C1915      C1916   1.410       .  A
C1915      H1919   1.083       .  S
C1916      C1917   1.409       .  A
C1916      C2024   1.491       .  S
C1917      H1920   1.084       .  S
O1921     Mn1947   2.103       .  S
C1922      C2122   1.517       .  S
C1922      O1955   1.276       .  A
C1922      O1952   1.268       .  A
O1923     Mn1930   2.157       .  S
O1923     Mn1941   2.121       .  S
O1923     Mn1945   2.165       .  S
O1924     Mn1958   2.117       .  S
O1924      C1934   1.272       .  A
O1925     Mn1941   2.096       .  S
O1925      C1948   1.273       .  A
O1926     Mn1945   2.108       .  S
O1926      C1953   1.255       .  A
O1927     Mn1947   1.955       .  S
O1927      C1943   1.213       .  S
C1928      C2083   1.507       .  S
C1928      O1931   1.256       .  A
C1928      O1954   1.219       .  S
O1929     Mn1930   2.189       .  S
O1929     Mn1963   2.135       .  S
O1929     Mn1945   2.176       .  S
Mn1930     O1935   2.118       .  S
O1932     Mn1939   2.092       .  S
O1932      C1934   1.266       .  A
C1933      C2052   1.503       .  S
C1933      O1959   1.252       .  A
C1933      O1946   1.215       .  S
C1934      C2153   1.497       .  S
O1935      C1960   1.259       .  A
O1936     Mn1939   2.110       .  S
O1936     Mn1958   2.117       .  S
O1937     Mn1941   1.976       .  S
O1937     Mn1963   1.974       .  S
O1937      C1960   1.224       .  S
C1938      C2013   1.527       .  S
C1938      O1940   1.273       .  A
Mn1939     O1952   2.083       .  S
O1940     Mn1963   2.107       .  S
Mn1941     O1957   2.092       .  S
Mn1941     O1951   1.976       .  S
O1942     Mn1947   2.100       .  S
C1943      C1999   1.500       .  S
C1943      O1961   1.257       .  A
C1944      C2041   1.485       .  S
C1944      O1957   1.266       .  A
O1946     Mn1949   1.959       .  S
Mn1947     O1965   1.961       .  S
C1948      C2066   1.516       .  S
Mn1949     O1956   2.122       .  S
Mn1949     O1964   2.106       .  S
Mn1949     O1954   1.984       .  S
C1950      C1985   1.528       .  S
C1950      O1966   1.272       .  A
O1951     Mn1963   1.960       .  S
O1951      C1953   1.222       .  S
C1953      C2136   1.504       .  S
O1955     Mn1958   2.117       .  S
C1960      C2111   1.503       .  S
O1962      C1967   1.262       .  A
Mn1963     O1966   2.098       .  S
O1965      C1967   1.213       .  S
C1967      C1968   1.508       .  S
C1968      C1969   1.418   1_655  A
C1968      C1973   1.422       .  A
C1969      C1970   1.422       .  A
C1970      C1971   1.417   1_455  A
C1971      C1972   1.412       .  A
C1972      C1973   1.406       .  A
C1972      C1975   1.454       .  S
C1973      C1976   1.452       .  S
C1974      N1981   1.156       .  T
C1975      N1980   1.157       .  T
C1976      N1978   1.158       .  T
C1977      N1979   1.157       .  T
C1982      C1987   1.407       .  A
C1983      C1984   1.414       .  A
C1983      C1988   1.455       .  S
C1984      C1991   1.445       .  S
C1985      C1986   1.434       .  A
C1986      C1987   1.419       .  A
C1986      C1989   1.452       .  S
C1987      C1990   1.453       .  S
C1988      N1995   1.157       .  T
C1989      N1994   1.158       .  T
C1990      N1992   1.157       .  T
C1991      N1993   1.155       .  T
C1996      C1997   1.419       .  A
C1997      C1998   1.421       .  A
C1997      C2002   1.450       .  S
C1998      C1999   1.418       .  A
C1998      C2005   1.451       .  S
C2000      C2001   1.405       .  A
C2000      C2003   1.452       .  S
C2001      C2004   1.454       .  S
C2002      N2009   1.158       .  T
C2003      N2008   1.158       .  T
C2004      N2006   1.157       .  T
C2005      N2007   1.158       .  T
C2010      C2015   1.405       .  A
C2011      C2012   1.417       .  A
C2011      C2016   1.452       .  S
C2012      C2019   1.452       .  S
C2013      C2014   1.433       .  A
C2014      C2015   1.418       .  A
C2014      C2017   1.451       .  S
C2015      C2018   1.452       .  S
C2016      N2023   1.157       .  T
C2017      N2022   1.158       .  T
C2018      N2020   1.157       .  T
C2019      N2021   1.158       .  T
C2024      C2336   1.413   1_655  A
C2024      C2340   1.412       .  A
C2025      C2335   1.413   1_455  A
C2025      C2026   1.413       .  A
C2025      C2341   1.451       .  S
C2026      C2027   1.412   1_455  A
C2026      C2033   1.450       .  S
C2027      C2028   1.413       .  A
C2028      C2029   1.414       .  A
C2028      C2031   1.451       .  S
C2029      C2335   1.412       .  A
C2029      C2032   1.449   1_554  S
C2030      C2336   1.451       .  S
C2030      N2037   1.157       .  T
C2031      N2036   1.157       .  T
C2032      N2345   1.157       .  T
N2034      C2343   1.157       .  T
C2038      C2039   1.409   1_565  A
C2038      C2043   1.409       .  A
C2039      C2040   1.414       .  A
C2039      C2044   1.448       .  S
C2040      C2041   1.415   1_545  A
C2040      C2047   1.444       .  S
C2041      C2042   1.412       .  A
C2042      C2043   1.401       .  A
C2042      C2045   1.449       .  S
C2043      C2046   1.452       .  S
C2045      N2050   1.157       .  T
C2046      N2048   1.158       .  T
C2052      C2053   1.415       .  A
C2052      C2057   1.417       .  A
C2053      C2054   1.415   1_565  A
C2053      C2058   1.449       .  S
C2054      C2055   1.421   1_545  A
C2054      C2061   1.452       .  S
C2055      C2056   1.429       .  A
C2056      C2057   1.409       .  A
C2056      C2059   1.450       .  S
C2057      C2060   1.458       .  S
C2058      N2065   1.157       .  T
C2059      N2064   1.158       .  T
C2060      N2062   1.158       .  T
C2061      N2063   1.158       .  T
C2066      C2067   1.428   1_565  A
C2066      C2071   1.425       .  A
C2067      C2068   1.416       .  A
C2068      C2069   1.410   1_545  A
C2069      C2070   1.404       .  A
C2070      C2071   1.410       .  A
C2070      C2073   1.453       .  S
C2071      C2074   1.447       .  S
C2072      N2079   1.158       .  T
C2073      N2078   1.157       .  T
C2074      N2076   1.156       .  T
C2075      N2077   1.158       .  T
C2080      C2081   1.417       .  A
C2080      C2085   1.412   1_565  A
C2081      C2082   1.416       .  A
C2081      C2086   1.449       .  S
C2082      C2083   1.418       .  A
C2082      C2089   1.447       .  S
C2083      C2084   1.425       .  A
C2084      C2085   1.404   1_565  A
C2086      N2093   1.157       .  T
C2087      N2092   1.156       .  T
C2088      N2090   1.158       .  T
C2094      C2406   1.409       .  A
C2095      C2405   1.409   1_554  A
C2095      C2096   1.410       .  A
C2095      C2411   1.451   1_554  S
C2096      C2097   1.414       .  A
C2096      C2103   1.451       .  S
C2098      C2099   1.409       .  A
C2098      C2101   1.451       .  S
C2099      C2102   1.452   1_554  S
C2100      C2406   1.451       .  S
C2100      N2107   1.157       .  T
C2101      N2106   1.157       .  T
C2102      N2415   1.157       .  T
C2103      N2105   1.157       .  T
N2104      C2413   1.157       .  T
C2108      C2109   1.415       .  A
C2108      C2113   1.405       .  A
C2109      C2110   1.422       .  A
C2109      C2114   1.449       .  S
C2110      C2111   1.421       .  A
C2110      C2117   1.450       .  S
C2111      C2112   1.418       .  A
C2112      C2113   1.404       .  A
C2112      C2115   1.441       .  S
C2113      C2116   1.455       .  S
C2114      N2121   1.157       .  T
C2115      N2120   1.155       .  T
C2116      N2118   1.157       .  T
C2117      N2119   1.157       .  T
C2122      C2123   1.426       .  A
C2122      C2127   1.431       .  A
C2123      C2124   1.414       .  A
C2123      C2128   1.452       .  S
C2124      C2125   1.408       .  A
C2124      C2131   1.451       .  S
C2125      C2126   1.403       .  A
C2126      C2127   1.413       .  A
C2126      C2129   1.453       .  S
C2127      C2130   1.449       .  S
C2128      N2135   1.158       .  T
C2129      N2134   1.157       .  T
C2130      N2132   1.157       .  T
C2131      N2133   1.157       .  T
C2136      C2137   1.418       .  A
C2136      C2141   1.412       .  A
C2137      C2138   1.420       .  A
C2137      C2142   1.446       .  S
C2138      C2139   1.419       .  A
C2138      C2145   1.451       .  S
C2139      C2140   1.410       .  A
C2140      C2141   1.402       .  A
C2140      C2143   1.453       .  S
C2141      C2144   1.440       .  S
C2142      N2149   1.155       .  T
C2143      N2148   1.157       .  T
C2144      N2146   1.154       .  T
C2145      N2147   1.158       .  T
C2150      C2151   1.416       .  A
C2150      C2155   1.418       .  A
C2151      C2152   1.410       .  A
C2151      C2156   1.452       .  S
C2152      C2153   1.417       .  A
C2152      C2159   1.451       .  S
C2153      C2154   1.413       .  A
C2154      C2155   1.416       .  A
C2154      C2157   1.447       .  S
C2155      C2158   1.451       .  S
C2156      N2163   1.157       .  T
C2157      N2162   1.156       .  T
C2158      N2160   1.158       .  T
C2159      N2161   1.157       .  T
C2164      C2165   1.412       .  A
C2164      C2169   1.411       .  A
C2165      C2166   1.410       .  A
C2165      C2170   1.451       .  S
C2166      C2478   1.411   1_554  A
C2166      C2173   1.451       .  S
C2167      C2477   1.411       .  A
C2167      C2479   1.411       .  A
C2168      C2478   1.411   1_554  A
C2168      C2169   1.409       .  A
C2168      C2482   1.451   1_554  S
C2169      C2172   1.451       .  S
C2170      N2177   1.157       .  T
C2171      C2479   1.451       .  S
C2171      N2176   1.157       .  T
C2172      N2174   1.157       .  T
C2173      N2486   1.157   1_554  T
N2175      C2484   1.157       .  T
C2178      C2179   1.404       .  A
C2178      C2183   1.406       .  A
C2178      C2461   1.504       .  S
C2179      C2180   1.406       .  A
C2179      H2184   1.082       .  S
C2180      C2181   1.401       .  A
C2180      C2450   1.502       .  S
C2181      C2182   1.403       .  A
C2181      H2185   1.083       .  S
C2182      C2183   1.405       .  A
C2182      C2475   1.480       .  S
C2183      H2186   1.083       .  S
C2187      C2188   1.399       .  A
C2187      C2192   1.401       .  A
C2187      C2436   1.488       .  S
C2188      C2189   1.404       .  A
C2188      H2193   1.084       .  S
C2189      C2190   1.405       .  A
C2189      C2478   1.480       .  S
C2190      C2191   1.402       .  A
C2190      H2194   1.083       .  S
C2191      C2192   1.409       .  A
C2191      C2419   1.496       .  S
C2192      H2195   1.084       .  S
C2196      C2197   1.396       .  A
C2196      C2201   1.399       .  A
C2196      C2380   1.486       .  S
C2197      C2198   1.406       .  A
C2197      H2202   1.084       .  S
C2198      C2199   1.406       .  A
C2198      C2391   1.502       .  S
C2199      C2200   1.406       .  A
C2199      H2203   1.082       .  S
C2200      C2201   1.406       .  A
C2200      C2408   1.483       .  S
C2201      H2204   1.084       .  S
C2205      C2206   1.395   1_545  A
C2205      C2210   1.405       .  A
C2205      C2349   1.485   1_545  S
C2206      C2207   1.398       .  A
C2206      H2211   1.084       .  S
C2207      C2208   1.405       .  A
C2207      C2405   1.481       .  S
C2208      C2209   1.415   1_565  A
C2208      H2212   1.081       .  S
C2209      C2210   1.408       .  A
C2209      C2366   1.521   1_545  S
C2210      H2213   1.077       .  S
C2214      C2215   1.404       .  A
C2214      C2219   1.402       .  A
C2214      C2321   1.496       .  S
C2215      C2216   1.408       .  A
C2215      H2220   1.083       .  S
C2216      C2217   1.407       .  A
C2216      C2338   1.490       .  S
C2217      C2218   1.406       .  A
C2217      H2221   1.083       .  S
C2218      C2219   1.410       .  A
C2218      C2307   1.504       .  S
C2219      H2222   1.084       .  S
C2223      C2224   1.399       .  A
C2223      C2228   1.403       .  A
C2223      C2293   1.493       .  S
C2224      C2225   1.405       .  A
C2224      H2229   1.084       .  S
C2225      C2226   1.409       .  A
C2225      C2282   1.504       .  S
C2226      C2227   1.410       .  A
C2226      H2230   1.083       .  S
C2227      C2228   1.409       .  A
C2227      C2335   1.491   1_556  S
C2228      H2231   1.084       .  S
O2232     Mn2258   2.103       .  S
C2233      C2433   1.517       .  S
C2233      O2266   1.276       .  A
C2233      O2263   1.268       .  A
O2234     Mn2241   2.157       .  S
O2234     Mn2252   2.121       .  S
O2234     Mn2256   2.165       .  S
O2235     Mn2269   2.117       .  S
O2235      C2245   1.272       .  A
O2236     Mn2252   2.096       .  S
O2236      C2259   1.273       .  A
O2237     Mn2256   2.108       .  S
O2237      C2264   1.255       .  A
O2238     Mn2258   1.955       .  S
O2238      C2254   1.213       .  S
C2239      C2394   1.507       .  S
C2239      O2242   1.256       .  A
C2239      O2265   1.219       .  S
O2240     Mn2241   2.189       .  S
O2240     Mn2274   2.135       .  S
O2240     Mn2256   2.176       .  S
Mn2241     O2246   2.118       .  S
O2243     Mn2250   2.092       .  S
O2243      C2245   1.266       .  A
C2244      C2363   1.503       .  S
C2244      O2270   1.252       .  A
C2244      O2257   1.215       .  S
C2245      C2464   1.497       .  S
O2246      C2271   1.259       .  A
O2247     Mn2250   2.110       .  S
O2247     Mn2269   2.117       .  S
O2248     Mn2252   1.976       .  S
O2248     Mn2274   1.974       .  S
O2248      C2271   1.224       .  S
C2249      C2324   1.527       .  S
C2249      O2251   1.273       .  A
Mn2250     O2263   2.083       .  S
O2251     Mn2274   2.107       .  S
Mn2252     O2268   2.092       .  S
Mn2252     O2262   1.976       .  S
O2253     Mn2258   2.100       .  S
C2254      C2310   1.500       .  S
C2254      O2272   1.257       .  A
C2255      C2352   1.485       .  S
C2255      O2268   1.266       .  A
O2257     Mn2260   1.959       .  S
Mn2258     O2276   1.961       .  S
C2259      C2377   1.516       .  S
Mn2260     O2267   2.122       .  S
Mn2260     O2275   2.106       .  S
Mn2260     O2265   1.984       .  S
C2261      C2296   1.528       .  S
C2261      O2277   1.272       .  A
O2262     Mn2274   1.960       .  S
O2262      C2264   1.222       .  S
C2264      C2447   1.504       .  S
O2266     Mn2269   2.117       .  S
C2271      C2422   1.503       .  S
O2273      C2278   1.262       .  A
Mn2274     O2277   2.098       .  S
O2276      C2278   1.213       .  S
C2278      C2279   1.508       .  S
C2279      C2280   1.418   1_655  A
C2279      C2284   1.422       .  A
C2280      C2281   1.422       .  A
C2281      C2282   1.417   1_455  A
C2282      C2283   1.412       .  A
C2283      C2284   1.406       .  A
C2283      C2286   1.454       .  S
C2284      C2287   1.452       .  S
C2285      N2292   1.156       .  T
C2286      N2291   1.157       .  T
C2287      N2289   1.158       .  T
C2288      N2290   1.157       .  T
C2293      C2298   1.407       .  A
C2294      C2295   1.414       .  A
C2294      C2299   1.455       .  S
C2295      C2302   1.445       .  S
C2296      C2297   1.434       .  A
C2297      C2298   1.419       .  A
C2297      C2300   1.452       .  S
C2298      C2301   1.453       .  S
C2299      N2306   1.157       .  T
C2300      N2305   1.158       .  T
C2301      N2303   1.157       .  T
C2302      N2304   1.155       .  T
C2307      C2308   1.419       .  A
C2308      C2309   1.421       .  A
C2308      C2313   1.450       .  S
C2309      C2310   1.418       .  A
C2309      C2316   1.451       .  S
C2311      C2312   1.405       .  A
C2311      C2314   1.452       .  S
C2312      C2315   1.454       .  S
C2313      N2320   1.158       .  T
C2314      N2319   1.158       .  T
C2315      N2317   1.157       .  T
C2316      N2318   1.158       .  T
C2321      C2326   1.405       .  A
C2322      C2323   1.417       .  A
C2322      C2327   1.452       .  S
C2323      C2330   1.452       .  S
C2324      C2325   1.433       .  A
C2325      C2326   1.418       .  A
C2325      C2328   1.451       .  S
C2326      C2329   1.452       .  S
C2327      N2334   1.157       .  T
C2328      N2333   1.158       .  T
C2329      N2331   1.157       .  T
C2330      N2332   1.158       .  T
C2336      C2337   1.413       .  A
C2337      C2338   1.412   1_455  A
C2337      C2344   1.450       .  S
C2338      C2339   1.413       .  A
C2339      C2340   1.414       .  A
C2339      C2342   1.451       .  S
C2340      C2343   1.449       .  S
C2341      N2348   1.157   1_554  T
C2342      N2347   1.157       .  T
C2349      C2350   1.409   1_565  A
C2349      C2354   1.409       .  A
C2350      C2351   1.414       .  A
C2350      C2355   1.448       .  S
C2351      C2352   1.415   1_545  A
C2351      C2358   1.444       .  S
C2352      C2353   1.412       .  A
C2353      C2354   1.401       .  A
C2353      C2356   1.449       .  S
C2354      C2357   1.452       .  S
C2356      N2361   1.157       .  T
C2357      N2359   1.158       .  T
C2363      C2364   1.415       .  A
C2363      C2368   1.417       .  A
C2364      C2365   1.415   1_565  A
C2364      C2369   1.449       .  S
C2365      C2366   1.421   1_545  A
C2365      C2372   1.452       .  S
C2366      C2367   1.429       .  A
C2367      C2368   1.409       .  A
C2367      C2370   1.450       .  S
C2368      C2371   1.458       .  S
C2369      N2376   1.157       .  T
C2370      N2375   1.158       .  T
C2371      N2373   1.158       .  T
C2372      N2374   1.158       .  T
C2377      C2378   1.428   1_565  A
C2377      C2382   1.425       .  A
C2378      C2379   1.416       .  A
C2379      C2380   1.410   1_545  A
C2380      C2381   1.404       .  A
C2381      C2382   1.410       .  A
C2381      C2384   1.453       .  S
C2382      C2385   1.447       .  S
C2383      N2390   1.158       .  T
C2384      N2389   1.157       .  T
C2385      N2387   1.156       .  T
C2386      N2388   1.158       .  T
C2391      C2392   1.417       .  A
C2391      C2396   1.412   1_565  A
C2392      C2393   1.416       .  A
C2392      C2397   1.449       .  S
C2393      C2394   1.418       .  A
C2393      C2400   1.447       .  S
C2394      C2395   1.425       .  A
C2395      C2396   1.404   1_565  A
C2397      N2404   1.157       .  T
C2398      N2403   1.156       .  T
C2399      N2401   1.158       .  T
C2406      C2407   1.410       .  A
C2407      C2408   1.414       .  A
C2407      C2414   1.451       .  S
C2409      C2410   1.409       .  A
C2409      C2412   1.451       .  S
C2410      C2413   1.452       .  S
C2411      N2418   1.157       .  T
C2412      N2417   1.157       .  T
C2414      N2416   1.157       .  T
C2419      C2420   1.415       .  A
C2419      C2424   1.405       .  A
C2420      C2421   1.422       .  A
C2420      C2425   1.449       .  S
C2421      C2422   1.421       .  A
C2421      C2428   1.450       .  S
C2422      C2423   1.418       .  A
C2423      C2424   1.404       .  A
C2423      C2426   1.441       .  S
C2424      C2427   1.455       .  S
C2425      N2432   1.157       .  T
C2426      N2431   1.155       .  T
C2427      N2429   1.157       .  T
C2428      N2430   1.157       .  T
C2433      C2434   1.426       .  A
C2433      C2438   1.431       .  A
C2434      C2435   1.414       .  A
C2434      C2439   1.452       .  S
C2435      C2436   1.408       .  A
C2435      C2442   1.451       .  S
C2436      C2437   1.403       .  A
C2437      C2438   1.413       .  A
C2437      C2440   1.453       .  S
C2438      C2441   1.449       .  S
C2439      N2446   1.158       .  T
C2440      N2445   1.157       .  T
C2441      N2443   1.157       .  T
C2442      N2444   1.157       .  T
C2447      C2448   1.418       .  A
C2447      C2452   1.412       .  A
C2448      C2449   1.420       .  A
C2448      C2453   1.446       .  S
C2449      C2450   1.419       .  A
C2449      C2456   1.451       .  S
C2450      C2451   1.410       .  A
C2451      C2452   1.402       .  A
C2451      C2454   1.453       .  S
C2452      C2455   1.440       .  S
C2453      N2460   1.155       .  T
C2454      N2459   1.157       .  T
C2455      N2457   1.154       .  T
C2456      N2458   1.158       .  T
C2461      C2462   1.416       .  A
C2461      C2466   1.418       .  A
C2462      C2463   1.410       .  A
C2462      C2467   1.452       .  S
C2463      C2464   1.417       .  A
C2463      C2470   1.451       .  S
C2464      C2465   1.413       .  A
C2465      C2466   1.416       .  A
C2465      C2468   1.447       .  S
C2466      C2469   1.451       .  S
C2467      N2474   1.157       .  T
C2468      N2473   1.156       .  T
C2469      N2471   1.158       .  T
C2470      N2472   1.157       .  T
C2475      C2476   1.412       .  A
C2475      C2480   1.411       .  A
C2476      C2477   1.410       .  A
C2476      C2481   1.451       .  S
C2477      C2484   1.451       .  S
C2479      C2480   1.409       .  A
C2480      C2483   1.451       .  S
C2481      N2488   1.157       .  T
C2482      N2487   1.157       .  T
C2483      N2485   1.157       .  T
