geometry optimzed in LAMMPS
_audit_creation_date              2020-11-30 
_audit_creation_method            'lammps2cif' 
_symmetry_space_group_name_H-M    'P1' 
_symmetry_Int_Tables_number       1 
_symmetry_cell_setting            triclinic 
loop_ 
_symmetry_equiv_pos_as_xyz 
  x,y,z 
_cell_length_a                    33.41914618 
_cell_length_b                    35.09105483181713 
_cell_length_c                    30.528370544693065 
_cell_angle_alpha                 90.8171993759962 
_cell_angle_beta                  90.27565122621986 
_cell_angle_gamma                 118.64660997016668 
loop_ 
_atom_site_label 
_atom_site_type_symbol 
_atom_site_fract_x 
_atom_site_fract_y 
_atom_site_fract_z 
_atom_site_charge 
C1          C  0.86630107  0.74629543  0.40457976     0.80000
N2          N  0.81994722  0.72415116  0.40174988    -0.78300
C3          C  0.79857169  0.68251773  0.38621394     0.82500
N4          N  0.82357452  0.66372211  0.37260850    -0.78200
C5          C  0.86968617  0.68557127  0.37486620     0.82600
N6          N  0.89117686  0.72730912  0.39015208    -0.79900
C7          C  0.76719450  0.83022233  0.04316989     0.80000
N8          N  0.75262578  0.78855358  0.05578364    -0.78300
C9          C  0.71363897  0.76753131  0.07903103     0.82500
N10         N  0.68961620  0.78825722  0.08966755    -0.78200
C11         C  0.70345840  0.82951626  0.07715762     0.82600
N12         N  0.74245798  0.85059258  0.05390590    -0.79900
C13         C  0.15713935  0.05994395  0.38906304     0.80000
N14         N  0.17404156  0.10222517  0.37767674    -0.78300
C15         C  0.21504951  0.12300894  0.35754953     0.82500
N16         N  0.23810510  0.10115318  0.34764326    -0.78200
C17         C  0.22158383  0.05912907  0.35884728     0.82600
N18         N  0.18115284  0.03861750  0.37975471    -0.79900
C19         C  0.50424953  0.47701687  0.24120597     0.02100
C20         C  0.50201784  0.48060085  0.19519372     0.02000
C21         C  0.46498094  0.44800660  0.17138482    -0.18500
C22         C  0.43031281  0.41217729  0.19243310     0.02100
C23         C  0.43271975  0.40870033  0.23839387     0.02000
C24         C  0.46951856  0.44130977  0.26220511    -0.18500
H25         H  0.47137583  0.43865628  0.29741872     0.04100
H26         H  0.46304155  0.45060058  0.13618216     0.04100
C27         C  0.06193568  0.14258346  0.03350778     0.80000
N28         N  0.03546915  0.16128007  0.04326608    -0.78300
C29         C  0.05366751  0.20001633  0.06523848     0.82500
N30         N  0.09798461  0.21956726  0.07812790    -0.78200
C31         C  0.12473645  0.20130680  0.06888027     0.82600
N32         N  0.10660576  0.16252656  0.04668148    -0.79900
C33         C  0.03400096  0.83413783  0.06429067     0.80000
N34         N  0.07871845  0.85681005  0.07683271    -0.78300
C35         C  0.09762227  0.83852794  0.10284691     0.82500
N36         N  0.07160013  0.79730697  0.11618798    -0.78200
C37         C  0.02720168  0.77398363  0.10368939     0.82600
N38         N  0.00826714  0.79233649  0.07737890    -0.79900
C39         C  0.89021454  0.05755102  0.37040428     0.80000
N40         N  0.84573973  0.03547296  0.35706937    -0.78300
C41         C  0.82761576  0.05473388  0.33140949     0.82500
N42         N  0.85379041  0.09664111  0.32010026    -0.78200
C43         C  0.89786265  0.11932101  0.33373526     0.82600
N44         N  0.91630308  0.09981905  0.35897616    -0.79900
C45         C  0.95475608  0.47594627  0.18819323     0.02100
C46         C  0.94750004  0.47230185  0.23396444     0.02000
C47         C  0.94695079  0.43715179  0.25579331    -0.18500
C48         C  0.95347404  0.40567388  0.23287097     0.02100
C49         C  0.96077215  0.40931011  0.18715546     0.02000
C50         C  0.96136027  0.44449166  0.16528529    -0.18500
H51         H  0.96721815  0.44754151  0.13030697     0.04100
H52         H  0.94186201  0.43449941  0.29089417     0.04100
C53         C  0.48912575  0.92820972  0.19984782     0.02100
C54         C  0.50159575  0.94865125  0.24175059     0.02000
C55         C  0.47132679  0.95865594  0.26448334    -0.18500
C56         C  0.42855214  0.94836509  0.24654622     0.02100
C57         C  0.41654932  0.92909130  0.20415823     0.02000
C58         C  0.44668895  0.91882392  0.18149300    -0.18500
H59         H  0.43730838  0.90398055  0.14906619     0.04100
H60         H  0.48110689  0.97447021  0.29646662     0.04100
Zr61       Zr  0.91999453  0.86578445  0.00356525     2.17500
O62         O  0.89932195  0.82488064  0.07126583    -0.51500
O63         O  0.88959235  0.80121385  0.45927814    -0.74700
O64         O  0.84032685  0.84044366  0.02391460    -0.81500
O65         O  0.04644862  0.89255608  0.51897883    -0.83300
O66         O  0.81860621  0.88958806  0.00197543    -0.78900
O67         O  0.97106752  0.84048514  0.03461959    -0.90500
O68         O  0.90767905  0.82008074  0.38825346    -0.76500
O69         O  0.89111330  0.88219074  0.44044865    -0.86000
O70         O  0.97665925  0.88307514  0.44751340    -0.85700
O71         O  0.91270095  0.92840961  0.02583940    -0.72400
O72         O  0.99012987  0.92704968  0.02801314    -0.84600
Zr73       Zr  0.00394201  0.02369197  0.42703827     2.26400
Zr74       Zr  0.88225973  0.94407982  0.45920926     2.06300
Zr75       Zr  0.04439837  0.94624935  0.47155887     2.10000
Zr76       Zr  0.94581926  0.89866281  0.38430782     1.78800
O77         O  0.10998958  0.97805735  0.01522988    -0.93400
O78         O  0.87929958  0.87194033  0.33581015    -0.41200
O79         O  0.01409886  0.96211124  0.40753165    -0.77800
O80         O  0.93561116  0.96050044  0.40095027    -0.96500
O81         O  0.94991038  0.00733855  0.48401471    -0.89800
O82         O  0.03578813  0.00831431  0.49008628    -0.92600
C83         C  0.88939588  0.79207066  0.41838351     1.01100
C84         C  0.01467316  0.85579558  0.03678295     1.14000
C85         C  0.81127913  0.85458119  0.02113427     1.04800
O86         O  0.81807154  0.90511592  0.40881350    -0.94800
O87         O  0.88005943  0.99950244  0.41443022    -0.90500
O88         O  0.95270645  0.04975980  0.39821710    -0.83700
C89         C  0.90917527  0.03467183  0.39639812     1.11500
O90         O  0.96559625  0.95881050  0.12111733    -0.96800
Zr91       Zr  0.98332410  0.98976820  0.04820941     1.88900
O92         O  0.03473962  0.09042832  0.47213790    -0.73400
O93         O  0.84799998  0.98068782  0.00745610    -0.52700
O94         O  0.93536652  0.01296339  0.08792712    -0.97400
O95         O  0.05171584  0.00976107  0.09254274    -0.54600
O96         O  0.02418084  0.06828520  0.04690877    -0.73900
C97         C  0.03710099  0.09890537  0.51350201     0.98400
O98         O  0.03045401  0.06183536  0.35818096    -0.62800
O99         O  0.07907553  0.91249952  0.42619276    -0.57600
O100        O  0.08358949  0.05032763  0.40643167    -0.94200
O101        O  0.10555801  0.00198986  0.43067007    -0.92700
O102        O  0.99906476  0.87903442  0.34969082    -0.93000
O103        O  0.96374695  0.92616395  0.31011586    -0.91800
C104        C  0.11266908  0.03632066  0.41032429     1.17300
H105        H  0.98240636  0.85893936  0.44222060     0.33200
H106        H  0.92427363  0.96716306  0.37459554     0.44100
H107        H  0.06499949  0.03269045  0.49807204     0.37600
H108        H  0.89223765  0.92139744  0.05025931     0.34100
H109        H  0.88145703  0.85012702  0.31643779     0.25800
H110        H  0.81558764  0.96666893  0.99797517     0.31800
H111        H  0.95667241  0.03765398  0.10682305     0.37700
H112        H  0.97990488  0.85414647  0.32995883     0.32200
H113        H  0.11000589  0.92315380  0.43891087     0.31000
H114        H  0.13352959  0.97520661  0.50747190     0.32700
H115        H  0.07745517  0.03082909  0.07499236     0.31700
H116        H  0.95882500  0.95182526  0.30991958     0.35700
H117        H  0.00483426  0.04667748  0.33703858     0.28400
H118        H  0.87204506  0.79682271  0.06399449     0.32600
H119        H  0.97909497  0.98385629  0.14192791     0.35500
H120        H  0.06277220  0.88126637  0.43323190     0.28100
H121        H  0.03276980  0.09077900  0.36316334     0.41000
H122        H  0.82882439  0.91919231  0.38022271     0.31000
H123        H  0.85299218  0.85462963  0.35478460     0.38600
H124        H  0.05538046  0.98338059  0.09240116     0.30500
H125        H  0.84738160  0.97009573  0.03746408     0.30600
H126        H  0.88827669  0.84037868  0.09102315     0.30800
C127        C  0.71832927  0.01887092  0.26630238    -0.11600
C128        C  0.68585851  0.00234617  0.29951000     0.15000
C129        C  0.69985252  0.99826318  0.34216428     0.01900
C130        C  0.74613845  0.01263755  0.35100355    -0.15900
C131        C  0.77895684  0.03183798  0.31838070    -0.10800
C132        C  0.76451053  0.03340778  0.27517286     0.08600
C133        C  0.63777662  0.98916898  0.28812391     0.09600
S134        S  0.66083008  0.97693456  0.38709835    -0.25100
H135        H  0.75689185  0.01115978  0.38420148     0.19900
S136        S  0.80307326  0.05281604  0.22975100    -0.30800
H137        H  0.70754728  0.02066485  0.23319126     0.10200
C138        C  0.62448855  0.01996660  0.27517227     0.03400
C139        C  0.57919318  0.00587132  0.26219916    -0.13100
C140        C  0.54699299  0.96162209  0.26154616    -0.08700
C141        C  0.55993420  0.93102089  0.27621847     0.06800
C142        C  0.60525819  0.94506540  0.28876515    -0.13800
S143        S  0.66510592  0.07723699  0.27518495    -0.30800
H144        H  0.56897863  0.02917707  0.25118332     0.11100
S145        S  0.52059728  0.87377692  0.27965463    -0.27900
H146        H  0.61538928  0.92141466  0.29887963     0.08300
H147        H  0.83497665  0.04153884  0.24709374     0.26800
H148        H  0.63624053  0.09111378  0.25557460     0.21600
H149        H  0.48072237  0.87758489  0.28276952     0.26900
H150        H  0.63110615  0.99227697  0.37303894     0.15700
C151        C  0.91192006  0.29812097  0.28952390    -0.11600
C152        C  0.95191203  0.29449326  0.29112011     0.15000
C153        C  0.99326910  0.32916054  0.27673903     0.01900
C154        C  0.99340155  0.36615736  0.26001919    -0.15900
C155        C  0.95303718  0.36910616  0.25697470    -0.10800
C156        C  0.91199599  0.33499421  0.27244004     0.08600
C157        C  0.94759405  0.25213466  0.30344202     0.09600
S158        S  0.04638684  0.32748069  0.27688747    -0.25100
H159        H  0.02488981  0.39226274  0.24780760     0.19900
S160        S  0.85903704  0.33670357  0.26696496    -0.30800
H161        H  0.88023082  0.27106331  0.29998348     0.10200
C162        C  0.94312107  0.23933106  0.34745528     0.03400
C163        C  0.93148226  0.19623015  0.35703590    -0.13100
C164        C  0.92336032  0.16570208  0.32328600    -0.08700
C165        C  0.93007972  0.17930223  0.27936907     0.06800
C166        C  0.94222359  0.22232495  0.26993861    -0.13800
S167        S  0.94950568  0.27723310  0.39103635    -0.30800
H168        H  0.92536499  0.18547109  0.39059167     0.11100
S169        S  0.92079490  0.14260432  0.23382373    -0.27900
H170        H  0.94519958  0.23211170  0.23610579     0.08300
H171        H  0.83112371  0.29677198  0.28684462     0.26800
H172        H  0.94177509  0.24870221  0.42576337     0.21600
H173        H  0.92920003  0.11291178  0.25728212     0.26900
H174        H  0.03501822  0.29597624  0.30921667     0.15700
C175        C  0.31902818  0.94232930  0.15579046    -0.11600
C176        C  0.28404300  0.89914558  0.15488918     0.15000
C177        C  0.29422270  0.86564666  0.16565681     0.01900
C178        C  0.33832075  0.87628752  0.17962823    -0.15900
C179        C  0.37267866  0.91965755  0.18299065    -0.10800
C180        C  0.36335267  0.95291730  0.16911881     0.08600
C181        C  0.23719829  0.88985146  0.14299981     0.09600
S182        S  0.25227894  0.80886551  0.16342386    -0.25100
H183        H  0.34556950  0.85061357  0.18938490     0.19900
S184        S  0.40625748  0.00929086  0.16727650    -0.30800
H185        H  0.31161389  0.96798091  0.14640037     0.10200
C186        C  0.20245155  0.87558748  0.17439574     0.03400
C187        C  0.15724569  0.86107398  0.16062303    -0.13100
C188        C  0.14628261  0.86195050  0.11626728    -0.08700
C189        C  0.18184568  0.87970124  0.08553091     0.06800
C190        C  0.22677893  0.89295857  0.09910987    -0.13800
S191        S  0.21573621  0.87544827  0.23183080    -0.30800
H192        H  0.13008740  0.84804018  0.18429565     0.11100
S193        S  0.17147101  0.88227099  0.02805361    -0.27900
H194        H  0.25362124  0.90440834  0.07505349     0.08300
H195        H  0.44438883  0.00249752  0.16609600     0.26800
H196        H  0.17059030  0.85641842  0.24673213     0.21600
H197        H  0.15071830  0.90848550  0.03488366     0.26900
H198        H  0.22579502  0.81197766  0.12918525     0.15700
C199        C  0.99579423  0.67088840  0.16401368    -0.11600
C200        C  0.98002160  0.64041792  0.12936295     0.15000
C201        C  0.97217637  0.65297237  0.08779270     0.01900
C202        C  0.98323224  0.69640742  0.08119802    -0.15900
C203        C  0.00252746  0.72762204  0.11511377    -0.10800
C204        C  0.00668001  0.71406878  0.15748752     0.08600
C205        C  0.97321570  0.59634342  0.13801746     0.09600
S206        S  0.95047608  0.61598087  0.04136178    -0.25100
H207        H  0.98000977  0.70648036  0.04856244     0.19900
S208        S  0.02650321  0.75058819  0.20435909    -0.30800
H209        H  0.00054191  0.66108510  0.19624104     0.10200
C210        C  0.01077318  0.58892494  0.14407432     0.03400
C211        C  0.00329336  0.54783502  0.15674735    -0.13100
C212        C  0.95914288  0.51441458  0.16472351    -0.08700
C213        C  0.92142545  0.52119255  0.15624301     0.06800
C214        C  0.92888853  0.56212164  0.14309195    -0.13800
S215        S  0.06833275  0.63217922  0.13707615    -0.30800
H216        H  0.03202433  0.54236808  0.16316309     0.11100
S217        S  0.86321811  0.47955400  0.16276877    -0.27900
H218        H  0.90003937  0.56775123  0.13804095     0.08300
H219        H  0.01081343  0.77866236  0.18871155     0.26800
H220        H  0.09063174  0.60901279  0.15081347     0.21600
H221        H  0.87151194  0.44408265  0.15785294     0.26900
H222        H  0.96597746  0.58709575  0.05457433     0.15700
C223        C  0.99703636  0.24869309  0.13585602    -0.11600
C224        C  0.99165989  0.27598833  0.10603026     0.15000
C225        C  0.00092540  0.27336566  0.06127634     0.01900
C226        C  0.01805957  0.24564627  0.04792063    -0.15900
C227        C  0.02552996  0.22002245  0.07823391    -0.10800
C228        C  0.01332908  0.22046089  0.12236859     0.08600
C229        C  0.98156847  0.31006710  0.12351266     0.09600
S230        S  0.99374330  0.30605185  0.02014244    -0.25100
H231        H  0.02760653  0.24556953  0.01405119     0.19900
S232        S  0.02008199  0.18749088  0.16344807    -0.30800
H233        H  0.99018933  0.25065019  0.17021653     0.10200
C234        C  0.93930806  0.29975707  0.14248886     0.03400
C235        C  0.93249949  0.33306219  0.16077405    -0.13100
C236        C  0.96771207  0.37629076  0.16213427    -0.08700
C237        C  0.01003389  0.38658134  0.14316168     0.06800
C238        C  0.01636437  0.35341810  0.12370673    -0.13800
S239        S  0.89408702  0.24425836  0.14363769    -0.30800
H240        H  0.90001290  0.32536225  0.17517146     0.11100
S241        S  0.05703524  0.44127721  0.14637260    -0.27900
H242        H  0.04905738  0.36089194  0.10991797     0.08300
H243        H  0.01635943  0.15428765  0.13466035     0.26800
H244        H  0.86634604  0.25161368  0.17336288     0.21600
H245        H  0.08722842  0.43377545  0.12026688     0.26900
H246        H  0.95940148  0.31094297  0.04179218     0.15700
C247        C  0.34336087  0.30722931  0.13536509    -0.11600
C248        C  0.30818871  0.31715539  0.12643319     0.15000
C249        C  0.31517428  0.35944727  0.13604067     0.01900
C250        C  0.35621648  0.39022166  0.15555880    -0.15900
C251        C  0.39066512  0.37985968  0.16617371    -0.10800
C252        C  0.38458975  0.33816884  0.15486642     0.08600
C253        C  0.26285307  0.28200330  0.11178557     0.09600
S254        S  0.27215542  0.37553887  0.12620837    -0.25100
H255        H  0.36067636  0.42211721  0.16416439     0.19900
S256        S  0.42734727  0.32200979  0.16557846    -0.30800
H257        H  0.33814693  0.27481454  0.12821244     0.10200
C258        C  0.25341343  0.26669462  0.06794538     0.03400
C259        C  0.20823077  0.23738015  0.05500718    -0.13100
C260        C  0.17250977  0.22339618  0.08514246    -0.08700
C261        C  0.18286861  0.23676594  0.12957770     0.06800
C262        C  0.22759217  0.26605134  0.14222256    -0.14700
S263        S  0.29823131  0.28691335  0.02800496    -0.30800
H264        H  0.20030183  0.22727423  0.02096947     0.11100
S265        S  0.14045566  0.21827050  0.17178165    -0.27900
H266        H  0.23484653  0.27746527  0.17599562     0.08300
H267        H  0.46503525  0.36391975  0.16519402     0.26800
H268        H  0.27014275  0.26674280  0.99114310     0.21600
H269        H  0.11140874  0.17798134  0.15149311     0.26900
H270        H  0.25145386  0.34764133  0.08994182     0.15700
C271        C  0.37354284  0.30468129  0.30308684    -0.11600
C272        C  0.32806319  0.29606427  0.30076739     0.15000
C273        C  0.31754133  0.32632218  0.28093031     0.01900
C274        C  0.35248057  0.36338957  0.26203733    -0.15900
C275        C  0.39768327  0.37072057  0.26194248    -0.10800
C276        C  0.40837618  0.34135165  0.28369445     0.08600
C277        C  0.29256277  0.25317867  0.31539764     0.09600
S278        S  0.26032561  0.31897247  0.27734610    -0.25100
H279        H  0.34424576  0.38647003  0.24674551     0.19900
S280        S  0.46520496  0.34757628  0.28686466    -0.30800
H281        H  0.38165922  0.28149858  0.31840831     0.10200
C282        C  0.26806441  0.21925230  0.28480480     0.03400
C283        C  0.23953933  0.17731956  0.29980755    -0.13100
C284        C  0.23493529  0.16865194  0.34473342    -0.08700
C285        C  0.25794911  0.20304340  0.37536137     0.06800
C286        C  0.28682191  0.24489648  0.36038185    -0.13800
S287        S  0.27629658  0.22849425  0.22667450    -0.30800
H288        H  0.22275495  0.15060381  0.27648669     0.11100
S289        S  0.25560836  0.19459312  0.43357213    -0.27900
H290        H  0.30610345  0.27089394  0.38386747     0.08300
H291        H  0.48137834  0.36984689  0.24757581     0.26800
H292        H  0.24303056  0.18679819  0.21263110     0.21600
H293        H  0.20878124  0.16491766  0.43398928     0.26900
H294        H  0.24179716  0.28949852  0.31165237     0.15700
C295        C  0.32438803  0.94328839  0.30216088    -0.11600
C296        C  0.33709842  0.98756970  0.30502166     0.15000
C297        C  0.38212789  0.01862150  0.29449465     0.01900
C298        C  0.41173942  0.00480331  0.27714051    -0.15900
C299        C  0.39805267  0.96052521  0.27132972    -0.10800
C300        C  0.35478036  0.92947007  0.28651706     0.08600
C301        C  0.30267986  0.00078348  0.31757740     0.09600
S302        S  0.40359398  0.07631767  0.30172837    -0.25100
H303        H  0.44538687  0.02883575  0.26690302     0.19900
S304        S  0.33670530  0.87212783  0.28798797    -0.30800
H305        H  0.29048950  0.91937638  0.31187395     0.10200
C306        C  0.28678254  0.02045305  0.28716055     0.03400
C307        C  0.25955567  0.03835005  0.30162013    -0.13100
C308        C  0.24672032  0.03594592  0.34563223    -0.08700
C309        C  0.26007230  0.01353010  0.37546316     0.06800
C310        C  0.28778773  0.99606272  0.36103942    -0.13800
S311        S  0.30118192  0.02275993  0.22991010    -0.30800
H312        H  0.24845837  0.05470618  0.27861836     0.11100
S313        S  0.24522225  0.00817991  0.43259538    -0.27900
H314        H  0.29954537  0.98042746  0.38429004     0.08300
H315        H  0.38046191  0.87585725  0.28649220     0.26800
H316        H  0.27496882  0.04180635  0.21530045     0.21600
H317        H  0.24759001  0.04910734  0.43748509     0.26900
H318        H  0.37579295  0.07350560  0.33729187     0.15700
C319        C  0.63376715  0.88959033  0.07959812    -0.11600
C320        C  0.61904476  0.88311940  0.12319203     0.15000
C321        C  0.63499063  0.86210888  0.15188388     0.01900
C322        C  0.66368199  0.84637796  0.13602187    -0.15900
C323        C  0.67712048  0.85121592  0.09200215    -0.10800
C324        C  0.66242320  0.87370674  0.06363389     0.08600
C325        C  0.58477342  0.89590388  0.13787969     0.09600
S326        S  0.61890538  0.85544467  0.20887675    -0.25100
H327        H  0.67544905  0.82975677  0.15797310     0.19900
S328        S  0.67655643  0.88087321  0.00637985    -0.30800
H329        H  0.62143993  0.90565784  0.05748361     0.10200
C330        C  0.59615218  0.93966762  0.14534439     0.03400
C331        C  0.56357406  0.94961094  0.16334065    -0.13100
C332        C  0.52016518  0.91660540  0.17498955    -0.08700
C333        C  0.50822270  0.87287308  0.16572253     0.06800
C334        C  0.54058654  0.86305346  0.14712938    -0.13800
S335        S  0.65282461  0.98265067  0.13418681    -0.30800
H336        H  0.57230478  0.98314200  0.16971400     0.11100
S337        S  0.45292294  0.82924241  0.18023623    -0.27900
H338        H  0.53212830  0.82952562  0.14110975     0.08300
H339        H  0.67370023  0.83989705  0.99977395     0.26800
H340        H  0.64683074  0.01693581  0.15144068     0.21600
H341        H  0.46013007  0.79480711  0.16578765     0.26900
H342        H  0.64032160  0.83086170  0.22042417     0.15700
C343        C  0.65730071  0.66920476  0.14956228    -0.11600
C344        C  0.64334869  0.63554805  0.11834702     0.15000
C345        C  0.65879965  0.64537745  0.07480498     0.01900
C346        C  0.68555682  0.68902248  0.06317534    -0.15900
C347        C  0.69696444  0.72277932  0.09413718    -0.10800
C348        C  0.68440775  0.71242448  0.13822176     0.08600
C349        C  0.60759933  0.59226379  0.13183689     0.09600
S350        S  0.64308994  0.60452564  0.03196686    -0.25100
H351        H  0.69495864  0.69675875  0.02924507     0.19900
S352        S  0.70011814  0.75307441  0.18124620    -0.30800
H353        H  0.64491428  0.66182355  0.18268822     0.10200
C354        C  0.61818769  0.56341539  0.15430519     0.03400
C355        C  0.58290999  0.52616911  0.17292567    -0.13100
C356        C  0.53753093  0.51842835  0.17160754    -0.08700
C357        C  0.52710587  0.54721227  0.14830121     0.06800
C358        C  0.56208953  0.58324072  0.12816025    -0.13800
S359        S  0.67663593  0.57467628  0.16019000    -0.30800
H360        H  0.59075502  0.50339255  0.18933144     0.11100
S361        S  0.47049642  0.54137440  0.14451444    -0.27900
H362        H  0.55412256  0.60592270  0.11154159     0.08300
H363        H  0.74067255  0.78382272  0.16175401     0.26800
H364        H  0.66797792  0.53991925  0.18790637     0.21600
H365        H  0.45495144  0.52129231  0.18495425     0.26900
H366        H  0.62595531  0.56796314  0.05869216     0.15700
C367        C  0.67721308  0.59288968  0.37816254    -0.11600
C368        C  0.66441867  0.60216725  0.33741530     0.15000
C369        C  0.69362087  0.64196081  0.31742751     0.01900
C370        C  0.73506660  0.67072664  0.33771227    -0.15900
C371        C  0.74942914  0.65968872  0.37638076    -0.10800
C372        C  0.71973310  0.62081798  0.39738534     0.08600
C373        C  0.62203698  0.56890164  0.31525526     0.09600
S374        S  0.68251371  0.65603876  0.26395106    -0.25100
H375        H  0.75832493  0.69996642  0.32085614     0.19900
S376        S  0.73551455  0.60386624  0.44709272    -0.30800
H377        H  0.65488047  0.56265587  0.39397644     0.10200
C378        C  0.61765254  0.52855801  0.30114824     0.03400
C379        C  0.57799485  0.49869311  0.27866278    -0.13100
C380        C  0.54344876  0.50895258  0.26807855    -0.08700
C381        C  0.54777959  0.54930094  0.28214333     0.06800
C382        C  0.58681403  0.57865773  0.30578368    -0.13800
S383        S  0.66367180  0.51602204  0.30910801    -0.30800
H384        H  0.57445680  0.46770885  0.26775484     0.11100
S385        S  0.50539573  0.56566255  0.27028940    -0.27900
H386        H  0.59016902  0.60969961  0.31627996     0.08300
H387        H  0.76872983  0.64551700  0.46127209     0.26800
H388        H  0.64565148  0.47856042  0.28203516     0.21600
H389        H  0.46780818  0.52368908  0.26878461     0.26900
H390        H  0.66189756  0.61360212  0.24619141     0.15700
C391        C  0.93528370  0.62320723  0.36098671    -0.11600
C392        C  0.92383616  0.60864966  0.31733329     0.15000
C393        C  0.89986206  0.62437178  0.29166116     0.01900
C394        C  0.88530426  0.65189130  0.31084920    -0.15900
C395        C  0.89490459  0.66503027  0.35499840    -0.10800
C396        C  0.92145673  0.65162058  0.37995655     0.08600
C397        C  0.93238440  0.57347240  0.30057971     0.09600
S398        S  0.88414187  0.60822127  0.23509452    -0.25100
H399        H  0.86475207  0.66190896  0.29155208     0.19900
S400        S  0.93435367  0.66577554  0.43712489    -0.30800
H401        H  0.95353835  0.61104792  0.38082364     0.10200
C402        C  0.97439247  0.58216563  0.28227177     0.03400
C403        C  0.97892362  0.54818029  0.26236690    -0.13100
C404        C  0.94193862  0.50582787  0.25948667    -0.08700
C405        C  0.90040058  0.49693491  0.27965439     0.06800
C406        C  0.89625792  0.53080933  0.30008673    -0.13800
S407        S  0.02152638  0.63674646  0.28277232    -0.30800
H408        H  0.01116203  0.55468904  0.24821723     0.11100
S409        S  0.85097955  0.44368958  0.27990850    -0.27900
H410        H  0.86400911  0.52417890  0.31445357     0.08300
H411        H  0.94542929  0.70947261  0.43249858     0.26800
H412        H  0.04953236  0.62828336  0.25442291     0.21600
H413        H  0.86024019  0.42733876  0.24131154     0.26900
H414        H  0.92154566  0.60192430  0.22519930     0.15700
C415        C  0.86018478  0.74567678  0.90157117     0.80000
N416        N  0.81372028  0.72367328  0.89849874    -0.78300
C417        C  0.79215947  0.68165867  0.88376182     0.82500
N418        N  0.81706936  0.66237792  0.87141587    -0.78200
C419        C  0.86311240  0.68409965  0.87375833     0.82600
N420        N  0.88485956  0.72609892  0.88824142    -0.79900
C421        C  0.76970838  0.83116314  0.54387862     0.80000
N422        N  0.75361032  0.78943264  0.55727174    -0.78300
C423        C  0.71399874  0.76975235  0.58003017     0.82500
N424        N  0.69095098  0.79182802  0.58904712    -0.78200
C425        C  0.70660159  0.83309404  0.57585600     0.82600
N426        N  0.74621411  0.85288441  0.55361628    -0.79900
C427        C  0.15212857  0.05355252  0.88097445     0.80000
N428        N  0.16754239  0.09482558  0.86674989    -0.78300
C429        C  0.20747353  0.11490078  0.84472800     0.82500
N430        N  0.23112294  0.09336412  0.83618084    -0.78200
C431        C  0.21629326  0.05246283  0.85030295     0.82600
N432        N  0.17678387  0.03257376  0.87286444    -0.79900
C433        C  0.50246370  0.46925047  0.73688515     0.02100
C434        C  0.50139754  0.47656191  0.69146955     0.02000
C435        C  0.46547615  0.44552337  0.66527471    -0.18500
C436        C  0.43055371  0.40777243  0.68344417     0.02100
C437        C  0.43175598  0.40047065  0.72881289     0.02000
C438        C  0.46781810  0.43126307  0.75493432    -0.18500
H439        H  0.46863452  0.42587564  0.78973243     0.04100
H440        H  0.46434605  0.45108126  0.63055892     0.04100
C441        C  0.05924722  0.14421237  0.52913495     0.80000
N442        N  0.03297786  0.16235410  0.54174320    -0.78300
C443        C  0.05191709  0.20065373  0.56461964     0.82500
N444        N  0.09681093  0.22023158  0.57555363    -0.78200
C445        C  0.12326832  0.20247892  0.56319924     0.82600
N446        N  0.10441027  0.16426700  0.54014303    -0.79900
C447        C  0.03584534  0.83424885  0.56285860     0.80000
N448        N  0.08054655  0.85559999  0.57557338    -0.78300
C449        C  0.09876321  0.83541336  0.59975708     0.82500
N450        N  0.07195628  0.79363005  0.61123367    -0.78200
C451        C  0.02750336  0.77171792  0.59847959     0.82600
N452        N  0.00934846  0.79198628  0.57402851    -0.79900
C453        C  0.89025557  0.05910627  0.87360365     0.80000
N454        N  0.84558949  0.03739389  0.86085485    -0.78300
C455        C  0.82774093  0.05623418  0.83422740     0.82500
N456        N  0.85467024  0.09754353  0.82122863    -0.78200
C457        C  0.89911160  0.11989236  0.83406132     0.82600
N458        N  0.91703181  0.10067695  0.86041008    -0.79900
C459        C  0.94924921  0.47423923  0.68779687     0.02100
C460        C  0.94296600  0.47083916  0.73372662     0.02000
C461        C  0.94369846  0.43614214  0.75554385    -0.18500
C462        C  0.95001503  0.40455876  0.73243442     0.02100
C463        C  0.95569645  0.40772073  0.68643056     0.02000
C464        C  0.95533545  0.44259264  0.66468596    -0.18500
H465        H  0.95992546  0.44518800  0.62952233     0.04100
H466        H  0.93957357  0.43383986  0.79076535     0.04100
C467        C  0.49017110  0.92562046  0.70031997     0.02100
C468        C  0.50096781  0.94439836  0.74309044     0.02000
C469        C  0.47023131  0.95457248  0.76460472    -0.18500
C470        C  0.42886477  0.94617576  0.74475493     0.02100
C471        C  0.41848691  0.92842749  0.70169409     0.02000
C472        C  0.44902002  0.91793751  0.68014761    -0.18500
H473        H  0.44100043  0.90431798  0.64715415     0.04100
H474        H  0.47859620  0.96917280  0.79719285     0.04100
Zr475      Zr  0.92251406  0.86749730  0.50426580     2.17500
O476        O  0.90374792  0.82894712  0.57336248    -0.51500
O477        O  0.88572045  0.80015192  0.95716942    -0.74700
O478        O  0.84258766  0.84029436  0.52454707    -0.81500
O479        O  0.04373016  0.89017196  0.01754422    -0.83300
O480        O  0.82079780  0.88894363  0.50113721    -0.78900
O481        O  0.97362095  0.84211228  0.53446171    -0.90500
O482        O  0.90159074  0.81993488  0.88606138    -0.76500
O483        O  0.88801653  0.88282508  0.94189655    -0.86000
O484        O  0.97262794  0.88109349  0.94533504    -0.85700
O485        O  0.91283078  0.92930040  0.52411092    -0.72400
O486        O  0.99117936  0.93004595  0.52945214    -0.84600
Zr487      Zr  0.00331359  0.02351336  0.92895306     2.26400
Zr488      Zr  0.88177332  0.94572606  0.96277744     2.06300
Zr489      Zr  0.04187670  0.94308124  0.96884749     2.10000
Zr490      Zr  0.94080202  0.89874932  0.88417943     1.78800
O491        O  0.10971228  0.98015822  0.52148812    -0.93400
O492        O  0.87087779  0.87608527  0.84168298    -0.41200
O493        O  0.01054909  0.96086261  0.90700164    -0.77800
O494        O  0.93364761  0.96171424  0.90324039    -0.96500
O495        O  0.95091404  0.00754056  0.98740488    -0.89800
O496        O  0.03581280  0.00600814  0.99000685    -0.92600
C497        C  0.88389255  0.79147103  0.91592913     1.01100
C498        C  0.01717407  0.85744950  0.53696758     1.14000
C499        C  0.81359071  0.85441092  0.52128732     1.04800
O500        O  0.81681372  0.91198585  0.91235573    -0.94800
O501        O  0.87958330  0.00182899  0.91919572    -0.90500
O502        O  0.95224165  0.05032087  0.90111091    -0.83700
C503        C  0.90885987  0.03625384  0.90019751     1.11500
O504        O  0.96211245  0.96375725  0.62055120    -0.96800
Zr505      Zr  0.98179468  0.99202860  0.54675682     1.88900
O506        O  0.03661475  0.08930458  0.97589769    -0.73400
O507        O  0.84424955  0.97868074  0.49791296    -0.52700
O508        O  0.93070809  0.01436300  0.58171851    -0.97400
O509        O  0.04854885  0.01422389  0.59419055    -0.54600
O510        O  0.02152890  0.07035955  0.54337610    -0.73900
C511        C  0.03985474  0.09728604  0.01743677     0.98400
O512        O  0.03015825  0.06535370  0.86214284    -0.62800
O513        O  0.07339363  0.90625406  0.92369342    -0.57600
O514        O  0.08095076  0.04664656  0.90357675    -0.94200
O515        O  0.10138264  0.99616784  0.92411280    -0.92700
O516        O  0.98922313  0.87751953  0.84265964    -0.93000
O517        O  0.95736383  0.92798155  0.81066661    -0.91800
C518        C  0.10879093  0.03097974  0.90454125     1.17300
H519        H  0.97751508  0.85661852  0.93893508     0.33200
H520        H  0.92227305  0.96904076  0.87733523     0.44100
H521        H  0.06555212  0.02986742  0.99755825     0.37600
H522        H  0.89208603  0.92242855  0.54826200     0.34100
H523        H  0.87050293  0.85474056  0.81989160     0.25800
H524        H  0.81148209  0.96064482  0.49042086     0.31800
H525        H  0.95077303  0.04361230  0.59444497     0.37700
H526        H  0.02073696  0.89999759  0.85017870     0.32200
H527        H  0.10522939  0.91789972  0.93432760     0.31000
H528        H  0.13344679  0.97412867  0.99912717     0.32700
H529        H  0.07434426  0.03701364  0.57804889     0.31700
H530        H  0.97974700  0.95905978  0.81523328     0.35700
H531        H  0.00524245  0.05051915  0.84022412     0.28400
H532        H  0.87744022  0.80001661  0.56675966     0.32600
H533        H  0.97353770  0.98960750  0.64026336     0.35500
H534        H  0.05791356  0.87567521  0.93310314     0.28100
H535        H  0.03126629  0.09361355  0.86842935     0.41000
H536        H  0.82942850  0.92303814  0.88313849     0.31000
H537        H  0.84598320  0.85846514  0.86196205     0.38600
H538        H  0.05438871  0.98909722  0.59368804     0.30500
H539        H  0.84667300  0.97316868  0.52927206     0.30600
H540        H  0.89147586  0.84401404  0.59222702     0.30800
C541        C  0.71610267  0.01998710  0.77210585    -0.11600
C542        C  0.68426397  0.00004199  0.80527739     0.15000
C543        C  0.69959778  0.99493968  0.84689067     0.01900
C544        C  0.74646342  0.01129361  0.85468545    -0.15900
C545        C  0.77858833  0.03340212  0.82209982    -0.10800
C546        C  0.76278170  0.03633064  0.77985912     0.08600
C547        C  0.63564712  0.98543434  0.79478419     0.09600
S548        S  0.66159307  0.96950977  0.89181937    -0.25100
H549        H  0.75805292  0.00862153  0.88714523     0.19900
S550        S  0.80002289  0.05934106  0.73400422    -0.30800
H551        H  0.70437138  0.02293041  0.73979268     0.10200
C552        C  0.62033768  0.01580968  0.78674002     0.03400
C553        C  0.57570795  0.00126685  0.77137275    -0.13100
C554        C  0.54559278  0.95684624  0.76477232    -0.08700
C555        C  0.55986081  0.92628423  0.77636163     0.06800
C556        C  0.60500337  0.94091676  0.79026687    -0.13800
S557        S  0.65770568  0.07318706  0.79602871    -0.30800
H558        H  0.56451762  0.02461511  0.76315637     0.11100
S559        S  0.52222914  0.86849971  0.77477225    -0.27900
H560        H  0.61643233  0.91749841  0.79741503     0.08300
H561        H  0.83193818  0.04638350  0.74744662     0.26800
H562        H  0.62501507  0.08670964  0.78782363     0.21600
H563        H  0.48157539  0.87072088  0.77956356     0.26900
H564        H  0.62770842  0.98001960  0.87890908     0.15700
C565        C  0.91265464  0.29809240  0.79108341    -0.11600
C566        C  0.95294715  0.29492577  0.79084303     0.15000
C567        C  0.99323061  0.32966180  0.77471596     0.01900
C568        C  0.99198216  0.36604754  0.75786426    -0.15900
C569        C  0.95124798  0.36853986  0.75660324    -0.10800
C570        C  0.91129392  0.33436040  0.77392255     0.08600
C571        C  0.94979675  0.25273290  0.80263401     0.09600
S572        S  0.04660213  0.32862161  0.77302052    -0.25100
H573        H  0.02266863  0.39205560  0.74426560     0.19900
S574        S  0.85768695  0.33507355  0.77072724    -0.30800
H575        H  0.88175461  0.27110007  0.80305290     0.10200
C576        C  0.94897877  0.24070758  0.84661883     0.03400
C577        C  0.93698594  0.19747987  0.85619532    -0.13100
C578        C  0.92538573  0.16611824  0.82255765    -0.08700
C579        C  0.93004318  0.17922923  0.77849174     0.06800
C580        C  0.94191782  0.22223749  0.76901738    -0.13800
S581        S  0.96086001  0.27989303  0.89044351    -0.30800
H582        H  0.93332206  0.18736698  0.88994853     0.11100
S583        S  0.91961296  0.14223258  0.73295221    -0.27900
H584        H  0.94302895  0.23155593  0.73517934     0.08300
H585        H  0.83014169  0.29278644  0.78593071     0.26800
H586        H  0.95526405  0.25182577  0.92510394     0.21600
H587        H  0.92797776  0.11240923  0.75622413     0.26900
H588        H  0.03805258  0.30108283  0.80877410     0.15700
C589        C  0.32004901  0.94057566  0.65360139    -0.11600
C590        C  0.28603216  0.89698855  0.65111366     0.15000
C591        C  0.29767629  0.86401104  0.65965739     0.01900
C592        C  0.34185146  0.87536804  0.67391684    -0.15900
C593        C  0.37503146  0.91896416  0.67947225    -0.10800
C594        C  0.36458791  0.95191997  0.66702385     0.08600
C595        C  0.23868854  0.88665224  0.63984580     0.09600
S596        S  0.25755880  0.80688327  0.65410803    -0.25100
H597        H  0.35000957  0.84994436  0.68232683     0.19900
S598        S  0.40637514  0.00871824  0.66681522    -0.30800
H599        H  0.31170781  0.96590184  0.64536728     0.10200
C600        C  0.20353927  0.86867689  0.67079411     0.03400
C601        C  0.15821576  0.85383394  0.65716574    -0.13100
C602        C  0.14739602  0.85772765  0.61347441    -0.08700
C603        C  0.18314645  0.87847633  0.58334279     0.06800
C604        C  0.22826332  0.89238062  0.59673804    -0.13800
S605        S  0.21645491  0.86436241  0.72748960    -0.30800
H606        H  0.13091449  0.83845478  0.68042485     0.11100
S607        S  0.17292573  0.88400486  0.52647156    -0.27900
H608        H  0.25531376  0.90637696  0.57299455     0.08300
H609        H  0.44501234  0.00276335  0.66466410     0.26800
H610        H  0.17107080  0.84183419  0.74164804     0.21600
H611        H  0.15273852  0.91031876  0.53564897     0.26900
H612        H  0.23061150  0.81086590  0.62089135     0.15700
C613        C  0.98510393  0.66749465  0.66026808    -0.11600
C614        C  0.97063292  0.63685205  0.62578224     0.15000
C615        C  0.96879727  0.65028764  0.58273177     0.01900
C616        C  0.98372552  0.69440217  0.57502397    -0.15900
C617        C  0.00088002  0.72538581  0.60933115    -0.10800
C618        C  0.00003829  0.71138729  0.65261429     0.08600
C619        C  0.96406692  0.59300353  0.63552456     0.09600
S620        S  0.95258616  0.61394127  0.53574665    -0.25100
H621        H  0.98496936  0.70499237  0.54163857     0.19900
S622        S  0.01971528  0.74829574  0.69921221    -0.30800
H623        H  0.98677367  0.65739198  0.69323003     0.10200
C624        C  0.00190048  0.58569668  0.63906672     0.03400
C625        C  0.99556001  0.54529499  0.65305283    -0.13100
C626        C  0.95214080  0.51215083  0.66404167    -0.08700
C627        C  0.91391598  0.51868296  0.65787745     0.06800
C628        C  0.92035607  0.55927337  0.64451670    -0.13800
S629        S  0.05859050  0.62868750  0.62777296    -0.30800
H630        H  0.02477260  0.54022139  0.65788947     0.11100
S631        S  0.85634127  0.47682123  0.66705910    -0.27900
H632        H  0.89121305  0.56476502  0.64142654     0.08300
H633        H  0.00912080  0.77908214  0.68113323     0.26800
H634        H  0.08158004  0.60479090  0.63594412     0.21600
H635        H  0.86475028  0.44156730  0.66047795     0.26900
H636        H  0.92625238  0.57512444  0.55780828     0.15700
C637        C  0.00094848  0.25358681  0.63749769    -0.11600
C638        C  0.98871470  0.27549418  0.60663871     0.15000
C639        C  0.99219988  0.26821937  0.56151369     0.01900
C640        C  0.01002773  0.24098588  0.54835308    -0.15900
C641        C  0.02430577  0.22075601  0.57935505    -0.10800
C642        C  0.01828689  0.22609886  0.62437912     0.08600
C643        C  0.97733109  0.30904581  0.62289306     0.09600
S644        S  0.97671135  0.29442238  0.51937556    -0.25100
H645        H  0.01479352  0.23719919  0.51378092     0.19900
S646        S  0.03340334  0.19989734  0.66678419    -0.30800
H647        H  0.99837856  0.25910371  0.67215105     0.10200
C648        C  0.93600237  0.29795767  0.64420230     0.03400
C649        C  0.92844783  0.33098480  0.66203406    -0.13100
C650        C  0.96233398  0.37475145  0.66093599    -0.08700
C651        C  0.00360522  0.38576926  0.63931321     0.06800
C652        C  0.01034000  0.35284086  0.61992078    -0.13800
S653        S  0.89334388  0.24176875  0.64938682    -0.30800
H654        H  0.89674195  0.32270205  0.67841026     0.11100
S655        S  0.04907122  0.44125566  0.63896610    -0.27900
H656        H  0.04215995  0.36095143  0.60380904     0.08300
H657        H  0.02792575  0.16420530  0.64090795     0.26800
H658        H  0.86259141  0.24937527  0.67448305     0.21600
H659        H  0.08301826  0.43214476  0.62289304     0.26900
H660        H  0.94438424  0.30000820  0.54396156     0.15700
C661        C  0.34301291  0.30608846  0.62267283    -0.11600
C662        C  0.30828394  0.31693158  0.61534468     0.15000
C663        C  0.31613709  0.35925690  0.62616744     0.01900
C664        C  0.35760840  0.38909170  0.64573296    -0.15900
C665        C  0.39148987  0.37760300  0.65520016    -0.10800
C666        C  0.38466615  0.33608336  0.64207315     0.08600
C667        C  0.26258971  0.28246441  0.60113775     0.09600
S668        S  0.27348624  0.37622108  0.61856588    -0.25100
H669        H  0.36262771  0.42086413  0.65575282     0.19900
S670        S  0.42708835  0.31902100  0.65022473    -0.30800
H671        H  0.33712254  0.27366427  0.61434014     0.10200
C672        C  0.25095586  0.27102226  0.55662997     0.03400
C673        C  0.20539756  0.24210107  0.54483096    -0.13100
C674        C  0.17167197  0.22430333  0.57688254    -0.08700
C675        C  0.18440340  0.23322031  0.62159324     0.06800
C676        C  0.22942634  0.26263571  0.63315607    -0.14700
S677        S  0.29355456  0.29523336  0.51495348    -0.30800
H678        H  0.19558753  0.23500228  0.51059863     0.11100
S679        S  0.14484074  0.20827078  0.66547377    -0.27900
H680        H  0.23860205  0.27074648  0.66741746     0.08300
H681        H  0.46496323  0.36085646  0.65070540     0.26800
H682        H  0.26360688  0.27797713  0.47876259     0.21600
H683        H  0.11486368  0.17052616  0.64169602     0.26900
H684        H  0.25218968  0.34961011  0.58165197     0.15700
C685        C  0.36804972  0.29262655  0.78697133    -0.11600
C686        C  0.32314067  0.28571760  0.78487264     0.15000
C687        C  0.31428204  0.31747823  0.76618588     0.01900
C688        C  0.35044553  0.35497855  0.74926762    -0.15900
C689        C  0.39525504  0.36115156  0.74955590    -0.10800
C690        C  0.40408396  0.32961353  0.76919866     0.08600
C691        C  0.28639713  0.24334844  0.79916712     0.09600
S692        S  0.25770217  0.31152497  0.76142919    -0.25100
H693        H  0.34349591  0.37945874  0.73537984     0.19900
S694        S  0.45994062  0.33350884  0.77176707    -0.30800
H695        H  0.37479726  0.26808826  0.80114458     0.10200
C696        C  0.26500915  0.20825241  0.76920977     0.03400
C697        C  0.23522984  0.16687528  0.78476155    -0.13100
C698        C  0.22655756  0.15986929  0.82969532    -0.08700
C699        C  0.24621055  0.19558159  0.85937610     0.06800
C700        C  0.27616507  0.23690159  0.84382927    -0.13800
S701        S  0.27891629  0.21541952  0.71174338    -0.30800
H702        H  0.22100653  0.13926937  0.76223805     0.11100
S703        S  0.23899894  0.18952861  0.91775755    -0.27900
H704        H  0.29301971  0.26389549  0.86686120     0.08300
H705        H  0.47830471  0.35953767  0.73500117     0.26800
H706        H  0.24601278  0.17360811  0.69760236     0.21600
H707        H  0.19174293  0.16166560  0.91528421     0.26900
H708        H  0.23790481  0.28218407  0.79562047     0.15700
C709        C  0.32418242  0.94024573  0.79983062    -0.11600
C710        C  0.33687629  0.98448339  0.80332487     0.15000
C711        C  0.38177624  0.01574551  0.79271878     0.01900
C712        C  0.41157607  0.00216160  0.77540187    -0.15900
C713        C  0.39787955  0.95794997  0.76896523    -0.10800
C714        C  0.35447549  0.92662177  0.78353275     0.08600
C715        C  0.30193627  0.99729878  0.81476973     0.09600
S716        S  0.40249681  0.07340854  0.79895151    -0.25100
H717        H  0.44526999  0.02632592  0.76540283     0.19900
S718        S  0.33567982  0.86906519  0.78266079    -0.30800
H719        H  0.29015859  0.91619506  0.80905669     0.10200
C720        C  0.28424231  0.01384157  0.78272581     0.03400
C721        C  0.25537618  0.03051128  0.79534036    -0.13100
C722        C  0.24289307  0.03014826  0.83923336    -0.08700
C723        C  0.25873464  0.01140371  0.87099660     0.06800
C724        C  0.28786068  0.99490409  0.85834023    -0.13800
S725        S  0.29848676  0.01373380  0.72571357    -0.30800
H726        H  0.24274632  0.04437637  0.77096016     0.11100
S727        S  0.24539214  0.00988096  0.92830830    -0.27900
H728        H  0.30121964  0.98184023  0.88289821     0.08300
H729        H  0.37896276  0.87192533  0.77959686     0.26800
H730        H  0.27146343  0.03121752  0.70931727     0.21600
H731        H  0.24653810  0.05045906  0.92980929     0.26900
H732        H  0.37458287  0.07075597  0.83434314     0.15700
C733        C  0.62639989  0.88100429  0.57677221    -0.11600
C734        C  0.62313500  0.88640482  0.62195529     0.15000
C735        C  0.65035176  0.87787265  0.65131997     0.01900
C736        C  0.67981903  0.86328984  0.63490566    -0.15900
C737        C  0.68227574  0.85670154  0.58974054    -0.10800
C738        C  0.65577844  0.86635324  0.56031339     0.08600
C739        C  0.58848751  0.89764837  0.63820376     0.09600
S740        S  0.64576025  0.88342299  0.70975790    -0.25100
H741        H  0.69984560  0.85541103  0.65737990     0.19900
S742        S  0.65424461  0.85634011  0.50210904    -0.30800
H743        H  0.60492688  0.88703710  0.55432206     0.10200
C744        C  0.59984083  0.94061866  0.64976886     0.03400
C745        C  0.56642425  0.94925186  0.66762940    -0.13100
C746        C  0.52232073  0.91549852  0.67572037    -0.08700
C747        C  0.51063033  0.87252323  0.66285604     0.06800
C748        C  0.54387705  0.86413247  0.64400091    -0.13800
S749        S  0.65737506  0.98409086  0.64373018    -0.30800
H750        H  0.57507481  0.98220802  0.67696648     0.11100
S751        S  0.45462839  0.82784684  0.67333147    -0.27900
H752        H  0.53573048  0.83118506  0.63513288     0.08300
H753        H  0.70091666  0.86978467  0.49821544     0.26800
H754        H  0.64766036  0.01830623  0.65217909     0.21600
H755        H  0.46143549  0.79509398  0.65329236     0.26900
H756        H  0.67091062  0.86261705  0.72229213     0.15700
C757        C  0.65122700  0.67300509  0.65187396    -0.11600
C758        C  0.64092534  0.63845452  0.62252745     0.15000
C759        C  0.66065952  0.64725319  0.58041167     0.01900
C760        C  0.68762755  0.69066486  0.56792909    -0.15900
C761        C  0.69569538  0.72522700  0.59679667    -0.10800
C762        C  0.67921288  0.71593050  0.64000019     0.08600
C763        C  0.60584577  0.59481907  0.63618360     0.09600
S764        S  0.65122773  0.60543071  0.54014324    -0.25100
H765        H  0.70025616  0.69748421  0.53476547     0.19900
S766        S  0.69211090  0.75757006  0.68142695    -0.30800
H767        H  0.63617873  0.66647636  0.68405396     0.10200
C768        C  0.61730581  0.56538039  0.65620167     0.03400
C769        C  0.58249351  0.52616188  0.67211201    -0.13100
C770        C  0.53664661  0.51704448  0.67114544    -0.08700
C771        C  0.52546378  0.54699679  0.65134670     0.06800
C772        C  0.55999953  0.58497792  0.63349468    -0.13800
S773        S  0.67617699  0.57819196  0.66249808    -0.30800
H774        H  0.59107543  0.50273463  0.68586750     0.11100
S775        S  0.46824796  0.53978987  0.64891638    -0.27900
H776        H  0.55128757  0.60808338  0.61893779     0.08300
H777        H  0.73500108  0.78686217  0.66470641     0.26800
H778        H  0.66830520  0.54503533  0.69215797     0.21600
H779        H  0.45265244  0.51606830  0.68751350     0.26900
H780        H  0.62356236  0.56880655  0.56472024     0.15700
C781        C  0.67314585  0.58829600  0.87512059    -0.11600
C782        C  0.65866921  0.59775746  0.83542621     0.15000
C783        C  0.68522131  0.63915541  0.81708754     0.01900
C784        C  0.72639383  0.66894202  0.83740626    -0.15900
C785        C  0.74268481  0.65783012  0.87482303    -0.10800
C786        C  0.71494278  0.61763513  0.89466875     0.08600
C787        C  0.61725441  0.56319082  0.81290130     0.09600
S788        S  0.67082855  0.65468676  0.76585625    -0.25100
H789        H  0.74796960  0.69933125  0.82144501     0.19900
S790        S  0.73258875  0.60104834  0.94345266    -0.30800
H791        H  0.65267416  0.55700718  0.88992088     0.10200
C792        C  0.61611713  0.52481844  0.79646352     0.03400
C793        C  0.57718386  0.49374222  0.77382591    -0.13100
C794        C  0.53980452  0.50064313  0.76603206    -0.08700
C795        C  0.54031127  0.53832983  0.78365613     0.06800
C796        C  0.57898607  0.56917389  0.80674407    -0.13800
S797        S  0.66529805  0.51654922  0.80161794    -0.30800
H798        H  0.57652905  0.46475935  0.76026737     0.11100
S799        S  0.49317713  0.54932724  0.77736712    -0.27900
H800        H  0.57949467  0.59832940  0.81965735     0.08300
H801        H  0.76172027  0.64335577  0.95944726     0.26800
H802        H  0.64551095  0.47490153  0.78193263     0.21600
H803        H  0.45884197  0.50585200  0.77356726     0.26900
H804        H  0.65111479  0.61321957  0.74592079     0.15700
C805        C  0.91564326  0.61030329  0.86336656    -0.11600
C806        C  0.91309409  0.60352047  0.81780443     0.15000
C807        C  0.89902605  0.62748778  0.79093228     0.01900
C808        C  0.88726950  0.65707168  0.81024040    -0.15900
C809        C  0.88808261  0.66260587  0.85587792    -0.10800
C810        C  0.90326115  0.63954447  0.88269185     0.08600
C811        C  0.92292947  0.56967449  0.79947747     0.09600
S812        S  0.89275458  0.62024065  0.73218880    -0.25100
H813        H  0.87454733  0.67392721  0.78962236     0.19900
S814        S  0.90406558  0.64327514  0.94168539    -0.30800
H815        H  0.92616916  0.59177920  0.88407046     0.10200
C816        C  0.96464791  0.58025650  0.77932851     0.03400
C817        C  0.97106887  0.54713217  0.75993569    -0.13100
C818        C  0.93609019  0.50370974  0.75916373    -0.08700
C819        C  0.89480062  0.49312495  0.78083013     0.06800
C820        C  0.88896994  0.52614151  0.80107868    -0.13800
S821        S  0.00967244  0.63585975  0.77859713    -0.30800
H822        H  0.00321192  0.55508243  0.74465000     0.11100
S823        S  0.84761692  0.43866098  0.78307004    -0.27900
H824        H  0.85697694  0.51806091  0.81689539     0.08300
H825        H  0.90946964  0.68543482  0.94478406     0.26800
H826        H  0.03906584  0.62854364  0.75109275     0.21600
H827        H  0.85588218  0.42314239  0.74338482     0.26900
H828        H  0.88221040  0.57640319  0.73050425     0.15700
loop_ 
_geom_bond_atom_site_label_1 
_geom_bond_atom_site_label_2 
_geom_bond_distance 
_geom_bond_site_symmetry_2 
_ccdc_geom_bond_type 
C1            N2   1.361       .  A
C1            N6   1.362       .  A
C1           C83   1.464       .  S
N2            C3   1.359       .  A
C3            N4   1.353       .  A
C3          C371   1.468       .  S
N4            C5   1.353       .  A
C5            N6   1.359       .  A
C5          C395   1.474       .  S
C7            N8   1.363       .  A
C7           N12   1.365       .  A
C7           C85   1.474       .  S
N8            C9   1.359       .  A
C9           N10   1.354       .  A
C9          C347   1.474       .  S
N10          C11   1.353       .  A
C11          N12   1.360       .  A
C11         C323   1.482       .  S
C13          N14   1.362       .  A
C13          N18   1.363       .  A
C13         C104   1.470       .  S
N14          C15   1.360       .  A
C15          N16   1.355       .  A
C15         C284   1.470       .  S
N16          C17   1.354       .  A
C17          N18   1.356       .  A
C17         C308   1.476       .  S
C19         C380   1.484       .  S
C19          C20   1.417       .  A
C19          C24   1.401       .  A
C20         C356   1.488       .  S
C20          C21   1.407       .  A
C21          C22   1.403       .  A
C21          H26   1.084       .  S
C22         C251   1.486       .  S
C22          C23   1.415       .  A
C23         C275   1.484       .  S
C23          C24   1.403       .  A
C24          H25   1.084       .  S
C27          N28   1.362       .  A
C27          N32   1.365       .  A
C27         C511   1.470       .  S
N28          C29   1.358       .  A
C29          N30   1.353       .  A
C29         C227   1.471       .  S
N30          C31   1.355       .  A
C31          N32   1.363       .  A
C31         C260   1.480       .  S
C33          N34   1.363       .  A
C33          N38   1.364       .  A
C33          C84   1.478       .  S
N34          C35   1.356       .  A
C35          N36   1.352       .  A
C35         C188   1.480       .  S
N36          C37   1.356       .  A
C37          N38   1.364       .  A
C37         C203   1.477       .  S
C39          N40   1.362       .  A
C39          N44   1.364       .  A
C39          C89   1.475       .  S
N40          C41   1.357       .  A
C41          N42   1.353       .  A
C41         C131   1.476       .  S
N42          C43   1.355       .  A
C43          N44   1.363       .  A
C43         C164   1.471       .  S
C45         C212   1.482       .  S
C45          C46   1.416       .  A
C45          C50   1.403       .  A
C46         C404   1.487       .  S
C46          C47   1.403       .  A
C47          C48   1.403       .  A
C47          H52   1.084       .  S
C48         C155   1.482       .  S
C48          C49   1.415       .  A
C49         C236   1.488       .  S
C49          C50   1.404       .  A
C50          H51   1.084       .  S
C53         C332   1.490       .  S
C53          C54   1.417       .  A
C53          C58   1.405       .  A
C54         C140   1.482       .  S
C54          C55   1.403       .  A
C55          C56   1.402       .  A
C55          H60   1.084       .  S
C56         C299   1.486       .  S
C56          C57   1.415       .  A
C57         C179   1.482       .  S
C57          C58   1.404       .  A
C58          H59   1.084       .  S
Zr61         O62   2.441       .  S
Zr61         O64   2.455       .  S
Zr61         O67   2.462       .  S
Zr61        O477   2.446   1_554  S
Zr61         O71   2.413       .  S
Zr61         O72   2.404       .  S
Zr61        O483   2.381   1_554  S
Zr61        O484   2.386   1_554  S
O62         H118   0.990       .  S
O62         H126   0.990       .  S
O63        Zr475   2.439       .  S
O63          C83   1.284       .  A
O64          C85   1.288       .  A
O65         Zr75   2.419       .  S
O65         C498   1.283       .  A
O66        Zr488   2.423   1_554  S
O66          C85   1.282       .  A
O67          C84   1.290   1_655  A
O68         Zr76   2.426       .  S
O68          C83   1.281       .  A
O69         Zr74   2.390       .  S
O69         Zr76   2.379       .  S
O69        Zr475   2.385       .  S
O70         Zr75   2.388   1_655  S
O70         Zr76   2.374       .  S
O70        Zr475   2.384       .  S
O70         H105   0.966       .  S
O71         Zr91   2.396       .  S
O71        Zr488   2.400   1_554  S
O71         H108   0.966       .  S
O72         Zr91   2.391       .  S
O72        Zr489   2.387   1_654  S
Zr73         O98   2.441       .  S
Zr73         O92   2.454       .  S
Zr73        O100   2.450       .  S
Zr73         O88   2.460   1_455  S
Zr73         O79   2.410   1_545  S
Zr73         O80   2.417   1_445  S
Zr73         O81   2.383   1_455  S
Zr73         O82   2.385       .  S
Zr74         O86   2.436       .  S
Zr74        O507   2.436       .  S
Zr74         O87   2.423       .  S
Zr74        O480   2.426       .  S
Zr74         O80   2.398       .  S
Zr74         O81   2.395   1_565  S
Zr74        O485   2.399       .  S
Zr75         O99   2.439       .  S
Zr75        O491   2.435       .  S
Zr75        O101   2.413   1_565  S
Zr75         O79   2.389       .  S
Zr75         O82   2.390   1_565  S
Zr75        O486   2.387   1_455  S
Zr76        O102   2.435       .  S
Zr76        O103   2.437       .  S
Zr76         O78   2.438       .  S
Zr76         O79   2.395   1_655  S
Zr76         O80   2.401       .  S
O77        Zr489   2.436   1_554  S
O77         H528   0.990   1_554  S
O78         H109   0.991       .  S
O78         H123   0.990       .  S
O80         H106   0.966       .  S
O81        Zr505   2.377   1_545  S
O82        Zr505   2.376   1_445  S
O82         H107   0.967       .  S
C84         O479   1.283       .  A
O86         H122   0.990       .  S
O87          C89   1.283   1_565  A
O88          C89   1.288       .  A
O90         Zr91   2.439       .  S
O90         H119   0.990       .  S
Zr91         O94   2.438   1_565  S
Zr91         O95   2.440   1_665  S
Zr91         O96   2.419   1_665  S
Zr91        O495   2.381   1_564  S
Zr91        O496   2.379   1_664  S
O92          C97   1.287       .  A
O93        Zr488   2.436   1_554  S
O93         H110   0.990   1_554  S
O93         H125   0.990       .  S
O94         H111   0.990       .  S
O95         H115   0.990       .  S
O95         H124   0.990   1_545  S
O96         C511   1.280       .  A
C97         C441   1.466       .  S
C97         O510   1.279       .  A
O98         H117   0.990       .  S
O98         H121   0.990       .  S
O99         H113   0.990       .  S
O99         H120   0.990       .  S
O100        C104   1.288       .  A
O101        C104   1.281       .  A
O102        H112   0.990       .  S
O103        H116   0.990       .  S
H114        O491   0.990       .  S
C127        C128   1.402       .  A
C127        C132   1.397       .  A
C127        H137   1.084       .  S
C128        C133   1.481   1_545  S
C128        C129   1.414   1_545  A
C129        C130   1.401   1_565  A
C129        S134   1.804       .  S
C130        C131   1.404       .  A
C130        H135   1.084       .  S
C131        C132   1.413       .  A
C132        S136   1.803       .  S
C133        C138   1.411   1_565  A
C133        C142   1.402       .  A
S134        H150   1.406       .  S
S136        H147   1.407       .  S
C138        C139   1.401       .  A
C138        S143   1.807       .  S
C139        C140   1.402   1_545  A
C139        H144   1.083       .  S
C140        C141   1.413       .  A
C141        C142   1.399       .  A
C141        S145   1.803       .  S
C142        H146   1.084       .  S
S143        H148   1.407       .  S
S145        H149   1.405       .  S
C151        C152   1.403       .  A
C151        C156   1.401       .  A
C151        H161   1.083       .  S
C152        C157   1.477       .  S
C152        C153   1.411       .  A
C153        C154   1.400       .  A
C153        S158   1.804   1_655  S
C154        C155   1.404       .  A
C154        H159   1.084   1_655  S
C155        C156   1.409       .  A
C156        S160   1.806       .  S
C157        C162   1.409       .  A
C157        C166   1.400       .  A
S158        H174   1.405       .  S
S160        H171   1.407       .  S
C162        C163   1.405       .  A
C162        S167   1.805       .  S
C163        C164   1.404       .  A
C163        H168   1.083       .  S
C164        C165   1.412       .  A
C165        C166   1.397       .  A
C165        S169   1.803       .  S
C166        H170   1.083       .  S
S167        H172   1.406       .  S
S169        H173   1.406       .  S
C175        C176   1.401       .  A
C175        C180   1.400       .  A
C175        H185   1.084       .  S
C176        C181   1.480       .  S
C176        C177   1.414       .  A
C177        C178   1.398       .  A
C177        S182   1.805       .  S
C178        C179   1.401       .  A
C178        H183   1.084       .  S
C179        C180   1.414       .  A
C180        S184   1.805   1_565  S
C181        C186   1.409       .  A
C181        C190   1.402       .  A
S182        H198   1.405       .  S
S184        H195   1.405       .  S
C186        C187   1.403       .  A
C186        S191   1.807       .  S
C187        C188   1.406       .  A
C187        H192   1.083       .  S
C188        C189   1.414       .  A
C189        C190   1.401       .  A
C189        S193   1.799       .  S
C190        H194   1.084       .  S
S191        H196   1.407       .  S
S193        H197   1.407       .  S
C199        C200   1.401       .  A
C199        C204   1.396   1_655  A
C199        H209   1.083   1_655  S
C200        C205   1.479       .  S
C200        C201   1.413       .  A
C201        C202   1.403       .  A
C201        S206   1.804       .  S
C202        C203   1.404   1_655  A
C202        H207   1.084       .  S
C203        C204   1.413       .  A
C204        S208   1.804       .  S
C205        C210   1.411   1_655  A
C205        C214   1.401       .  A
S206        H222   1.404       .  S
S208        H219   1.407       .  S
C210        C211   1.401       .  A
C210        S215   1.806       .  S
C211        C212   1.401   1_455  A
C211        H216   1.083       .  S
C212        C213   1.414       .  A
C213        C214   1.400       .  A
C213        S217   1.802       .  S
C214        H218   1.084       .  S
S215        H220   1.407       .  S
S217        H221   1.405       .  S
C223        C224   1.403       .  A
C223        C228   1.398   1_655  A
C223        H233   1.083       .  S
C224        C229   1.483       .  S
C224        C225   1.414   1_655  A
C225        C226   1.402       .  A
C225        S230   1.803   1_455  S
C226        C227   1.401       .  A
C226        H231   1.084       .  S
C227        C228   1.412       .  A
C228        S232   1.803       .  S
C229        C234   1.409       .  A
C229        C238   1.404   1_655  A
S230        H246   1.406       .  S
S232        H243   1.406       .  S
C234        C235   1.402       .  A
C234        S239   1.805       .  S
C235        C236   1.405       .  A
C235        H240   1.082       .  S
C236        C237   1.411   1_655  A
C237        C238   1.403       .  A
C237        S241   1.806       .  S
C238        H242   1.083       .  S
S239        H244   1.407       .  S
S241        H245   1.407       .  S
C247        C248   1.403       .  A
C247        C252   1.404       .  A
C247        H257   1.084       .  S
C248        C253   1.484       .  S
C248        C249   1.413       .  A
C249        C250   1.399       .  A
C249        S254   1.804       .  S
C250        C251   1.401       .  A
C250        H255   1.084       .  S
C251        C252   1.414       .  A
C252        S256   1.802       .  S
C253        C258   1.411       .  A
C253        C262   1.399       .  A
S254        H270   1.405       .  S
S256        H267   1.405       .  S
C258        C259   1.410       .  A
C258        S263   1.805       .  S
C259        C260   1.405       .  A
C259        H264   1.083       .  S
C260        C261   1.415       .  A
C261        C262   1.396       .  A
C261        S265   1.803       .  S
C262        H266   1.084       .  S
S263        H268   1.407   1_554  S
S265        H269   1.406       .  S
C271        C272   1.402       .  A
C271        C276   1.398       .  A
C271        H281   1.084       .  S
C272        C277   1.478       .  S
C272        C273   1.411       .  A
C273        C274   1.400       .  A
C273        S278   1.805       .  S
C274        C275   1.406       .  A
C274        H279   1.083       .  S
C275        C276   1.415       .  A
C276        S280   1.807       .  S
C277        C282   1.409       .  A
C277        C286   1.403       .  A
S278        H294   1.405       .  S
S280        H291   1.403       .  S
C282        C283   1.401       .  A
C282        S287   1.807       .  S
C283        C284   1.402       .  A
C283        H288   1.083       .  S
C284        C285   1.412       .  A
C285        C286   1.401       .  A
C285        S289   1.802       .  S
C286        H290   1.084       .  S
S287        H292   1.407       .  S
S289        H293   1.404       .  S
C295        C296   1.402       .  A
C295        C300   1.402       .  A
C295        H305   1.084       .  S
C296        C301   1.482   1_565  S
C296        C297   1.413   1_565  A
C297        C298   1.397       .  A
C297        S302   1.804       .  S
C298        C299   1.402   1_545  A
C298        H303   1.084       .  S
C299        C300   1.416       .  A
C300        S304   1.804       .  S
C301        C306   1.409       .  A
C301        C310   1.403   1_545  A
S302        H318   1.406       .  S
S304        H315   1.405       .  S
C306        C307   1.400       .  A
C306        S311   1.808       .  S
C307        C308   1.404       .  A
C307        H312   1.083       .  S
C308        C309   1.414       .  A
C309        C310   1.403   1_545  A
C309        S313   1.803       .  S
C310        H314   1.084       .  S
S311        H316   1.407       .  S
S313        H317   1.406       .  S
C319        C320   1.404       .  A
C319        C324   1.405       .  A
C319        H329   1.084       .  S
C320        C325   1.485       .  S
C320        C321   1.409       .  A
C321        C322   1.401       .  A
C321        S326   1.809       .  S
C322        C323   1.406       .  A
C322        H327   1.083       .  S
C323        C324   1.415       .  A
C324        S328   1.802       .  S
C325        C330   1.409       .  A
C325        C334   1.404       .  A
S326        H342   1.407       .  S
S328        H339   1.406   1_554  S
C330        C331   1.405       .  A
C330        S335   1.806       .  S
C331        C332   1.406       .  A
C331        H336   1.082       .  S
C332        C333   1.412       .  A
C333        C334   1.403       .  A
C333        S337   1.808       .  S
C334        H338   1.083       .  S
S335        H340   1.407   1_565  S
S337        H341   1.406       .  S
C343        C344   1.399       .  A
C343        C348   1.393       .  A
C343        H353   1.082       .  S
C344        C349   1.479       .  S
C344        C345   1.415       .  A
C345        C346   1.406       .  A
C345        S350   1.805       .  S
C346        C347   1.405       .  A
C346        H351   1.084       .  S
C347        C348   1.412       .  A
C348        S352   1.805       .  S
C349        C354   1.408       .  A
C349        C358   1.401       .  A
S350        H366   1.403       .  S
S352        H363   1.407       .  S
C354        C355   1.404       .  A
C354        S359   1.805       .  S
C355        C356   1.407       .  A
C355        H360   1.081       .  S
C356        C357   1.415       .  A
C357        C358   1.398       .  A
C357        S361   1.806       .  S
C358        H362   1.084       .  S
S359        H364   1.407       .  S
S361        H365   1.404       .  S
C367        C368   1.406       .  A
C367        C372   1.402       .  A
C367        H377   1.084       .  S
C368        C373   1.486       .  S
C368        C369   1.414       .  A
C369        C370   1.398       .  A
C369        S374   1.800       .  S
C370        C371   1.400       .  A
C370        H375   1.084       .  S
C371        C372   1.411       .  A
C372        S376   1.804       .  S
C373        C378   1.412       .  A
C373        C382   1.404       .  A
S374        H390   1.406       .  S
S376        H387   1.406       .  S
C378        C379   1.402       .  A
C378        S383   1.807       .  S
C379        C380   1.402       .  A
C379        H384   1.083       .  S
C380        C381   1.413       .  A
C381        C382   1.402       .  A
C381        S385   1.802       .  S
C382        H386   1.084       .  S
S383        H388   1.407       .  S
S385        H389   1.405       .  S
C391        C392   1.404       .  A
C391        C396   1.404       .  A
C391        H401   1.084       .  S
C392        C397   1.479       .  S
C392        C393   1.411       .  A
C393        C394   1.396       .  A
C393        S398   1.805       .  S
C394        C395   1.403       .  A
C394        H399   1.084       .  S
C395        C396   1.412       .  A
C396        S400   1.800       .  S
C397        C402   1.406       .  A
C397        C406   1.402       .  A
S398        H414   1.403       .  S
S400        H411   1.404       .  S
C402        C403   1.403       .  A
C402        S407   1.804   1_655  S
C403        C404   1.406       .  A
C403        H408   1.082   1_655  S
C404        C405   1.415       .  A
C405        C406   1.400       .  A
C405        S409   1.806       .  S
C406        H410   1.084       .  S
S407        H412   1.407       .  S
S409        H413   1.403       .  S
C415        N416   1.365       .  A
C415        N420   1.362       .  A
C415        C497   1.469       .  S
N416        C417   1.362       .  A
C417        N418   1.352       .  A
C417        C785   1.473       .  S
N418        C419   1.352       .  A
C419        N420   1.359       .  A
C419        C809   1.469       .  S
C421        N422   1.366       .  A
C421        N426   1.362       .  A
C421        C499   1.473       .  S
N422        C423   1.363       .  A
C423        N424   1.355       .  A
C423        C761   1.479       .  S
N424        C425   1.351       .  A
C425        N426   1.355       .  A
C425        C737   1.472       .  S
C427        N428   1.362       .  A
C427        N432   1.364       .  A
C427        C518   1.473       .  S
N428        C429   1.360       .  A
C429        N430   1.354       .  A
C429        C698   1.472       .  S
N430        C431   1.352       .  A
C431        N432   1.358       .  A
C431        C722   1.477       .  S
C433        C794   1.485       .  S
C433        C434   1.417       .  A
C433        C438   1.403       .  A
C434        C770   1.489       .  S
C434        C435   1.407       .  A
C435        C436   1.403       .  A
C435        H440   1.084       .  S
C436        C665   1.485       .  S
C436        C437   1.416       .  A
C437        C689   1.487       .  S
C437        C438   1.405       .  A
C438        H439   1.084       .  S
C441        N442   1.362       .  A
C441        N446   1.362       .  A
N442        C443   1.359       .  A
C443        N444   1.355       .  A
C443        C641   1.473       .  S
N444        C445   1.355       .  A
C445        N446   1.360       .  A
C445        C674   1.475       .  S
C447        N448   1.363       .  A
C447        N452   1.363       .  A
C447        C498   1.476       .  S
N448        C449   1.357       .  A
C449        N450   1.354       .  A
C449        C602   1.481       .  S
N450        C451   1.357       .  A
C451        N452   1.362       .  A
C451        C617   1.475       .  S
C453        N454   1.362       .  A
C453        N458   1.364       .  A
C453        C503   1.477       .  S
N454        C455   1.357       .  A
C455        N456   1.356       .  A
C455        C545   1.484       .  S
N456        C457   1.358       .  A
C457        N458   1.363       .  A
C457        C578   1.476       .  S
C459        C626   1.487       .  S
C459        C460   1.417       .  A
C459        C464   1.403       .  A
C460        C818   1.489       .  S
C460        C461   1.406       .  A
C461        C462   1.405       .  A
C461        H466   1.084       .  S
C462        C569   1.490       .  S
C462        C463   1.417       .  A
C463        C650   1.488       .  S
C463        C464   1.406       .  A
C464        H465   1.084       .  S
C467        C746   1.487       .  S
C467        C468   1.419       .  A
C467        C472   1.405       .  A
C468        C554   1.487       .  S
C468        C469   1.402       .  A
C469        C470   1.401       .  A
C469        H474   1.084       .  S
C470        C713   1.483       .  S
C470        C471   1.415       .  A
C471        C593   1.484       .  S
C471        C472   1.403       .  A
C472        H473   1.084       .  S
Zr475       O476   2.440       .  S
Zr475       O478   2.453       .  S
Zr475       O481   2.455       .  S
Zr475       O485   2.411       .  S
Zr475       O486   2.404       .  S
O476        H532   0.990       .  S
O476        H540   0.990       .  S
O477        C497   1.285       .  A
O478        C499   1.287       .  A
O479       Zr489   2.419   1_554  S
O480        C499   1.284       .  A
O481        C498   1.289   1_655  A
O482       Zr490   2.429       .  S
O482        C497   1.282       .  A
O483       Zr488   2.393       .  S
O483       Zr490   2.375       .  S
O484       Zr489   2.391   1_655  S
O484       Zr490   2.376       .  S
O484        H519   0.966       .  S
O485       Zr505   2.390       .  S
O485        H522   0.965       .  S
O486       Zr505   2.394       .  S
Zr487       O512   2.441       .  S
Zr487       O506   2.460       .  S
Zr487       O514   2.451       .  S
Zr487       O502   2.463   1_455  S
Zr487       O493   2.410   1_545  S
Zr487       O494   2.415   1_445  S
Zr487       O495   2.384   1_455  S
Zr487       O496   2.384       .  S
Zr488       O500   2.436       .  S
Zr488       O501   2.421   1_565  S
Zr488       O494   2.398       .  S
Zr488       O495   2.396   1_565  S
Zr489       O513   2.439       .  S
Zr489       O515   2.416       .  S
Zr489       O493   2.386       .  S
Zr489       O496   2.392   1_565  S
Zr490       O516   2.435       .  S
Zr490       O517   2.435       .  S
Zr490       O492   2.436       .  S
Zr490       O493   2.396   1_655  S
Zr490       O494   2.398       .  S
O492        H523   0.990       .  S
O492        H537   0.990       .  S
O494        H520   0.966       .  S
O496        H521   0.968       .  S
O500        H536   0.990       .  S
O501        C503   1.283       .  A
O502        C503   1.288       .  A
O504       Zr505   2.438       .  S
O504        H533   0.990       .  S
Zr505       O508   2.438   1_565  S
Zr505       O509   2.439   1_665  S
Zr505       O510   2.416   1_665  S
O506        C511   1.288   1_556  A
O507        H524   0.990       .  S
O507        H539   0.990       .  S
O508        H525   0.990       .  S
O509        H529   0.990       .  S
O509        H538   0.990   1_545  S
O512        H531   0.991       .  S
O512        H535   0.990       .  S
O513        H527   0.990       .  S
O513        H534   0.990       .  S
O514        C518   1.288       .  A
O515        C518   1.282   1_565  A
O516        H526   0.990   1_655  S
O517        H530   0.990       .  S
C541        C542   1.401       .  A
C541        C546   1.398       .  A
C541        H551   1.084       .  S
C542        C547   1.482   1_545  S
C542        C543   1.413   1_545  A
C543        C544   1.403   1_565  A
C543        S548   1.804       .  S
C544        C545   1.406       .  A
C544        H549   1.084       .  S
C545        C546   1.415       .  A
C546        S550   1.802       .  S
C547        C552   1.410   1_565  A
C547        C556   1.402       .  A
S548        H564   1.405       .  S
S550        H561   1.407       .  S
C552        C553   1.401       .  A
C552        S557   1.806       .  S
C553        C554   1.403   1_545  A
C553        H558   1.083       .  S
C554        C555   1.415       .  A
C555        C556   1.402       .  A
C555        S559   1.802       .  S
C556        H560   1.084       .  S
S557        H562   1.407       .  S
S559        H563   1.406       .  S
C565        C566   1.403       .  A
C565        C570   1.404       .  A
C565        H575   1.083       .  S
C566        C571   1.483       .  S
C566        C567   1.411       .  A
C567        C568   1.402       .  A
C567        S572   1.802   1_655  S
C568        C569   1.406       .  A
C568        H573   1.084   1_655  S
C569        C570   1.411       .  A
C570        S574   1.806       .  S
C571        C576   1.410       .  A
C571        C580   1.401       .  A
S572        H588   1.405       .  S
S574        H585   1.407       .  S
C576        C577   1.406       .  A
C576        S581   1.805       .  S
C577        C578   1.404       .  A
C577        H582   1.083       .  S
C578        C579   1.413       .  A
C579        C580   1.399       .  A
C579        S583   1.803       .  S
C580        H584   1.083       .  S
S581        H586   1.407       .  S
S583        H587   1.406       .  S
C589        C590   1.402       .  A
C589        C594   1.401       .  A
C589        H599   1.083       .  S
C590        C595   1.481       .  S
C590        C591   1.414       .  A
C591        C592   1.397       .  A
C591        S596   1.804       .  S
C592        C593   1.401       .  A
C592        H597   1.084       .  S
C593        C594   1.415       .  A
C594        S598   1.804   1_565  S
C595        C600   1.410       .  A
C595        C604   1.401       .  A
S596        H612   1.405       .  S
S598        H609   1.405       .  S
C600        C601   1.404       .  A
C600        S605   1.808       .  S
C601        C602   1.406       .  A
C601        H606   1.083       .  S
C602        C603   1.414       .  A
C603        C604   1.401       .  A
C603        S607   1.799       .  S
C604        H608   1.084       .  S
S605        H610   1.407       .  S
S607        H611   1.406       .  S
C613        C614   1.401       .  A
C613        C618   1.397   1_655  A
C613        H623   1.082       .  S
C614        C619   1.481       .  S
C614        C615   1.413       .  A
C615        C616   1.404       .  A
C615        S620   1.804       .  S
C616        C617   1.404   1_655  A
C616        H621   1.084       .  S
C617        C618   1.412       .  A
C618        S622   1.804       .  S
C619        C624   1.409   1_655  A
C619        C628   1.402       .  A
S620        H636   1.402       .  S
S622        H633   1.407       .  S
C624        C625   1.403   1_455  A
C624        S629   1.807       .  S
C625        C626   1.403       .  A
C625        H630   1.083   1_655  S
C626        C627   1.414       .  A
C627        C628   1.402       .  A
C627        S631   1.802       .  S
C628        H632   1.084       .  S
S629        H634   1.406       .  S
S631        H635   1.406       .  S
C637        C638   1.401   1_455  A
C637        C642   1.398       .  A
C637        H647   1.084   1_455  S
C638        C643   1.480       .  S
C638        C639   1.413       .  A
C639        C640   1.402   1_655  A
C639        S644   1.803       .  S
C640        C641   1.402       .  A
C640        H645   1.084       .  S
C641        C642   1.413       .  A
C642        S646   1.803       .  S
C643        C648   1.408       .  A
C643        C652   1.402   1_655  A
S644        H660   1.406       .  S
S646        H657   1.406       .  S
C648        C649   1.403       .  A
C648        S653   1.806       .  S
C649        C650   1.406       .  A
C649        H654   1.082       .  S
C650        C651   1.411   1_655  A
C651        C652   1.403       .  A
C651        S655   1.807       .  S
C652        H656   1.083       .  S
S653        H658   1.407       .  S
S655        H659   1.407       .  S
C661        C662   1.402       .  A
C661        C666   1.402       .  A
C661        H671   1.084       .  S
C662        C667   1.480       .  S
C662        C663   1.413       .  A
C663        C664   1.399       .  A
C663        S668   1.804       .  S
C664        C665   1.402       .  A
C664        H669   1.084       .  S
C665        C666   1.414       .  A
C666        S670   1.801       .  S
C667        C672   1.410       .  A
C667        C676   1.399       .  A
S668        H684   1.405       .  S
S670        H681   1.405       .  S
C672        C673   1.407       .  A
C672        S677   1.804       .  S
C673        C674   1.404       .  A
C673        H678   1.083       .  S
C674        C675   1.413       .  A
C675        C676   1.396       .  A
C675        S679   1.803       .  S
C676        H680   1.083       .  S
S677        H682   1.406       .  S
S679        H683   1.406       .  S
C685        C686   1.402       .  A
C685        C690   1.399       .  A
C685        H695   1.084       .  S
C686        C691   1.477       .  S
C686        C687   1.410       .  A
C687        C688   1.400       .  A
C687        S692   1.805       .  S
C688        C689   1.407       .  A
C688        H693   1.083       .  S
C689        C690   1.415       .  A
C690        S694   1.806       .  S
C691        C696   1.408       .  A
C691        C700   1.402       .  A
S692        H708   1.404       .  S
S694        H705   1.403       .  S
C696        C697   1.401       .  A
C696        S701   1.807       .  S
C697        C698   1.404       .  A
C697        H702   1.083       .  S
C698        C699   1.413       .  A
C699        C700   1.401       .  A
C699        S703   1.802       .  S
C700        H704   1.084       .  S
S701        H706   1.407       .  S
S703        H707   1.404       .  S
C709        C710   1.402       .  A
C709        C714   1.401       .  A
C709        H719   1.084       .  S
C710        C715   1.480       .  S
C710        C711   1.413   1_565  A
C711        C712   1.397       .  A
C711        S716   1.804       .  S
C712        C713   1.402   1_545  A
C712        H717   1.084       .  S
C713        C714   1.415       .  A
C714        S718   1.805       .  S
C715        C720   1.408   1_565  A
C715        C724   1.403       .  A
S716        H732   1.406       .  S
S718        H729   1.405       .  S
C720        C721   1.400       .  A
C720        S725   1.807       .  S
C721        C722   1.404       .  A
C721        H726   1.083       .  S
C722        C723   1.414       .  A
C723        C724   1.403   1_545  A
C723        S727   1.803       .  S
C724        H728   1.084       .  S
S725        H730   1.406       .  S
S727        H731   1.406       .  S
C733        C734   1.402       .  A
C733        C738   1.401       .  A
C733        H743   1.084       .  S
C734        C739   1.477       .  S
C734        C735   1.408       .  A
C735        C736   1.401       .  A
C735        S740   1.807       .  S
C736        C737   1.404       .  A
C736        H741   1.083       .  S
C737        C738   1.412       .  A
C738        S742   1.802       .  S
C739        C744   1.406       .  A
C739        C748   1.402       .  A
S740        H756   1.407       .  S
S742        H753   1.403       .  S
C744        C745   1.401       .  A
C744        S749   1.805       .  S
C745        C746   1.405       .  A
C745        H750   1.082       .  S
C746        C747   1.413       .  A
C747        C748   1.403       .  A
C747        S751   1.808       .  S
C748        H752   1.083       .  S
S749        H754   1.407   1_565  S
S751        H755   1.407       .  S
C757        C758   1.399       .  A
C757        C762   1.394       .  A
C757        H767   1.082       .  S
C758        C763   1.481       .  S
C758        C759   1.417       .  A
C759        C760   1.408       .  A
C759        S764   1.807       .  S
C760        C761   1.405       .  A
C760        H765   1.084       .  S
C761        C762   1.413       .  A
C762        S766   1.805       .  S
C763        C768   1.408       .  A
C763        C772   1.401       .  A
S764        H780   1.402       .  S
S766        H777   1.407       .  S
C768        C769   1.405       .  A
C768        S773   1.804       .  S
C769        C770   1.407       .  A
C769        H774   1.081       .  S
C770        C771   1.415       .  A
C771        C772   1.399       .  A
C771        S775   1.806       .  S
C772        H776   1.084       .  S
S773        H778   1.408       .  S
S775        H779   1.404       .  S
C781        C782   1.404       .  A
C781        C786   1.401       .  A
C781        H791   1.084       .  S
C782        C787   1.489       .  S
C782        C783   1.415       .  A
C783        C784   1.402       .  A
C783        S788   1.801       .  S
C784        C785   1.401       .  A
C784        H789   1.084       .  S
C785        C786   1.411       .  A
C786        S790   1.803       .  S
C787        C792   1.413       .  A
C787        C796   1.404       .  A
S788        H804   1.405       .  S
S790        H801   1.407       .  S
C792        C793   1.403       .  A
C792        S797   1.807       .  S
C793        C794   1.402       .  A
C793        H798   1.083       .  S
C794        C795   1.413       .  A
C795        C796   1.402       .  A
C795        S799   1.803       .  S
C796        H800   1.084       .  S
S797        H802   1.407       .  S
S799        H803   1.405       .  S
C805        C806   1.403       .  A
C805        C810   1.402       .  A
C805        H815   1.084       .  S
C806        C811   1.479       .  S
C806        C807   1.413       .  A
C807        C808   1.398       .  A
C807        S812   1.805       .  S
C808        C809   1.402       .  A
C808        H813   1.084       .  S
C809        C810   1.411       .  A
C810        S814   1.803       .  S
C811        C816   1.407       .  A
C811        C820   1.402       .  A
S812        H828   1.404       .  S
S814        H825   1.404       .  S
C816        C817   1.403       .  A
C816        S821   1.805   1_655  S
C817        C818   1.407       .  A
C817        H822   1.082   1_655  S
C818        C819   1.416       .  A
C819        C820   1.400       .  A
C819        S823   1.805       .  S
C820        H824   1.084       .  S
S821        H826   1.407       .  S
S823        H827   1.403       .  S
