geometry optimzed in LAMMPS
_audit_creation_date              2020-11-30 
_audit_creation_method            'lammps2cif' 
_symmetry_space_group_name_H-M    'P1' 
_symmetry_Int_Tables_number       1 
_symmetry_cell_setting            triclinic 
loop_ 
_symmetry_equiv_pos_as_xyz 
  x,y,z 
_cell_length_a                    38.14176627 
_cell_length_b                    38.18511539206312 
_cell_length_c                    33.48974045523606 
_cell_angle_alpha                 89.96882316378026 
_cell_angle_beta                  90.45356932467654 
_cell_angle_gamma                 120.31675032332073 
loop_ 
_atom_site_label 
_atom_site_type_symbol 
_atom_site_fract_x 
_atom_site_fract_y 
_atom_site_fract_z 
_atom_site_charge 
C1          C  0.22027816  0.21458554  0.15616657     0.79900
N2          N  0.25187461  0.24642744  0.17505463    -0.78400
C3          C  0.28080698  0.27842639  0.15441707     0.82400
N4          N  0.27848330  0.27819079  0.11411715    -0.78300
C5          C  0.24731483  0.24672150  0.09452303     0.82500
N6          N  0.21780639  0.21491882  0.11556298    -0.80000
C7          C  0.21128934  0.22076157  0.49054331     0.79900
N8          N  0.21336582  0.21859933  0.03061415    -0.78400
C9          C  0.24548456  0.24837248  0.05086514     0.82400
N10         N  0.27642894  0.27945361  0.03048959    -0.78300
C11         C  0.27481000  0.28168719  0.49014509     0.82500
N12         N  0.24203162  0.25169896  0.47055779    -0.80000
C13         C  0.24467843  0.46756658  0.15070417     0.79900
N14         N  0.24217635  0.46162611  0.11058264    -0.78400
C15         C  0.21048562  0.45951109  0.08950356     0.82400
N16         N  0.18139117  0.46368838  0.10872259    -0.78300
C17         C  0.18357505  0.47003008  0.14876897     0.82500
N18         N  0.21548109  0.47185528  0.16907529    -0.80000
C19         C  0.23373578  0.44475186  0.48556243     0.79900
N20         N  0.23657268  0.44936462  0.02600030    -0.78400
C21         C  0.20802765  0.45388581  0.04591132     0.82400
N22         N  0.17810457  0.45543384  0.02508167    -0.78300
C23         C  0.17578717  0.45202136  0.48492825     0.82500
N24         N  0.20343071  0.44608245  0.46563419    -0.80000
C25         C  0.48729313  0.24096861  0.15087611     0.79900
N26         N  0.48665090  0.20963433  0.17054628    -0.78400
C27         C  0.48664314  0.17853709  0.15072683     0.82400
N28         N  0.48785097  0.17982887  0.11027363    -0.78300
C29         C  0.48920600  0.21138357  0.08999466     0.82500
N30         N  0.48890312  0.24205001  0.11038686    -0.80000
C31         C  0.49697154  0.24458497  0.48500035     0.79900
N32         N  0.49435038  0.24405064  0.02522254    -0.78400
C33         C  0.49169574  0.21225987  0.04624900     0.82400
N34         N  0.49052536  0.18051360  0.02657735    -0.78300
C35         C  0.49245338  0.18066143  0.48620315     0.82500
N36         N  0.49601319  0.21293330  0.46584811    -0.80000
O37         O  0.39185558  0.00717723  0.27840174    -0.88500
C38         C  0.10060914  0.09463201  0.38382058     1.11600
O39         O  0.44197651  0.47379088  0.31984227    -1.36300
O40         O  0.07273980  0.10096487  0.27844378    -0.90000
O41         O  0.36131255  0.44012848  0.27112639    -0.90600
O42         O  0.44602408  0.43680316  0.23276782    -0.79400
O43         O  0.48238173  0.05291230  0.28715536    -1.01500
C44         C  0.06343321  0.48124017  0.24805701     1.21600
O45         O  0.48595495  0.43367481  0.31874797    -1.36400
Mn46       Mn  0.48356382  0.47312680  0.36454803     1.82100
O47         O  0.03200427  0.48103388  0.23566370    -0.78500
O48         O  0.11152420  0.07275601  0.28274684    -0.87900
C49         C  0.05635258  0.47198850  0.39454150     1.12700
C50         C  0.10332525  0.09857543  0.26787630     1.07400
O51         O  0.43895282  0.42814227  0.40264700    -0.79500
O52         O  0.02725151  0.01864229  0.32290331    -1.33200
O53         O  0.40561642  0.39393154  0.35271992    -0.98700
C54         C  0.48990702  0.36031845  0.25953194     1.06100
Mn55       Mn  0.08533029  0.02511317  0.32509598     1.48600
O56         O  0.45522313  0.35314136  0.27136741    -0.87900
Mn57       Mn  0.38541297  0.41911633  0.31571070     1.49600
O58         O  0.39011947  0.00142068  0.36806848    -0.91700
C59         C  0.48353565  0.05107466  0.25115877     1.19300
C60         C  0.36147024  0.46564554  0.37760582     1.11400
Mn61       Mn  0.48682737  0.47774008  0.27644752     1.81000
O62         O  0.06235602  0.47554802  0.35882064    -0.96900
Mn63       Mn  0.43558924  0.02530395  0.32328656     1.49300
C64         C  0.36548949  0.47431209  0.26182513     1.07900
Mn65       Mn  0.03990707  0.43105940  0.32010763     1.49900
C66         C  0.48608708  0.35602560  0.37457915     1.10800
O67         O  0.40980861  0.39837870  0.27884950    -1.02700
O68         O  0.10623781  0.06622524  0.37250686    -0.92400
C69         C  0.41460054  0.40502397  0.24329241     1.22100
O70         O  0.06702677  0.48000273  0.28446829    -1.03100
O71         O  0.07414650  0.10089780  0.36744083    -0.90500
O72         O  0.01989592  0.38487945  0.36250247    -0.90100
O73         O  0.35693370  0.43405708  0.36013925    -0.90100
Mn74       Mn  0.02946184  0.07495233  0.32325346     1.47900
O75         O  0.02470257  0.47088705  0.40631096    -0.78600
C76         C  0.40789264  0.39739026  0.38879171     1.15100
O77         O  0.48657606  0.02202727  0.23746112    -0.77300
O78         O  0.48348984  0.01439646  0.40822033    -0.76900
Mn79       Mn  0.43323566  0.37592480  0.31591801     1.51100
O80         O  0.02271300  0.38904288  0.27386033    -0.89300
O81         O  0.48304111  0.05164308  0.36144518    -0.96800
O82         O  0.45249460  0.35046452  0.36075758    -0.91800
C83         C  0.48401749  0.04621817  0.39762909     1.12900
C84         C  0.50407541  0.12194512  0.48224485    -0.06100
C85         C  0.48873438  0.14508062  0.46434978    -0.00100
C86         C  0.46935461  0.13315300  0.42641921    -0.08700
C87         C  0.46920876  0.10089957  0.40683678    -0.06100
C88         C  0.48476134  0.07786404  0.42408979    -0.00200
C89         C  0.50196763  0.08801113  0.46282194    -0.08600
C90         C  0.51833897  0.06369105  0.48314268     0.61700
H91         H  0.51801427  0.13067780  0.01148533     0.12400
H92         H  0.45551327  0.09269062  0.37745734     0.12500
C93         C  0.44702597  0.15250008  0.40665370     0.62000
F94         F  0.53570075  0.07981945  0.01990270    -0.23200
F95         F  0.04766624  0.06305325  0.45968083    -0.20500
F96         F  0.48698978  0.02439075  0.48900418    -0.20200
F97         F  0.97459838  0.19053622  0.39224700    -0.20200
F98         F  0.42153629  0.15550180  0.43384411    -0.20600
F99         F  0.42309244  0.12973377  0.37467133    -0.23200
C100        C  0.45687635  0.26511319  0.44431617    -0.06100
C101        C  0.49462875  0.27564037  0.46091314    -0.00100
C102        C  0.52928221  0.31245596  0.45021080    -0.08700
C103        C  0.52479744  0.33819280  0.42310658    -0.06100
C104        C  0.48685287  0.32774996  0.40551801    -0.00200
C105        C  0.45208463  0.29012641  0.41661913    -0.08600
C106        C  0.40989705  0.27561230  0.39981000     0.61700
H107        H  0.43107088  0.23622046  0.45276476     0.12400
H108        H  0.05142814  0.36653820  0.41504084     0.12500
C109        C  0.57077295  0.32353316  0.96679588     0.62000
F110        F  0.38141224  0.23776673  0.41400868    -0.23200
F111        F  0.41005627  0.27277622  0.35863110    -0.20500
F112        F  0.39773315  0.30251991  0.41111289    -0.20200
F113        F  0.07995598  0.29396943  0.95652514    -0.20200
F114        F  0.57058743  0.32640882  0.00794220    -0.20600
F115        F  0.10113005  0.36022767  0.95206918    -0.23200
C116        C  0.98718654  0.08154051  0.18408787    -0.06100
C117        C  0.48380998  0.08357723  0.22570608    -0.00100
C118        C  0.48153104  0.11698513  0.24195639    -0.08700
C119        C  0.48180262  0.14578476  0.21581588    -0.06100
C120        C  0.48551921  0.14428108  0.17422103    -0.00200
C121        C  0.98851605  0.11131838  0.15789580    -0.08600
C122        C  0.99344260  0.10700455  0.11344074     0.61700
H123        H  0.98912223  0.05626709  0.17209960     0.12400
H124        H  0.47935703  0.17048082  0.22838714     0.12500
C125        C  0.47916419  0.12358880  0.28663412     0.62000
F126        F  0.99694449  0.07341453  0.10496486    -0.23200
F127        F  0.02827807  0.14078967  0.09990260    -0.20500
F128        F  0.95990398  0.10255213  0.09272651    -0.20200
F129        F  0.51338084  0.12822554  0.30600770    -0.20200
F130        F  0.44478030  0.09115017  0.30236909    -0.20600
F131        F  0.47704961  0.15803570  0.29476375    -0.23200
C132        C  0.02318289  0.29727638  0.19840769    -0.06100
C133        C  0.48885104  0.27450020  0.17433463    -0.00100
C134        C  0.45549328  0.28079945  0.17699528    -0.08700
C135        C  0.45781670  0.31031621  0.20387184    -0.06100
C136        C  0.49200130  0.33299774  0.22876027    -0.00200
C137        C  0.02549916  0.32619495  0.22596476    -0.08600
C138        C  0.06295648  0.34748479  0.25284882     0.61700
H139        H  0.04795072  0.29122224  0.19607473     0.12400
H140        H  0.43222733  0.31505324  0.20637661     0.12500
C141        C  0.41691420  0.25493255  0.15301103     0.62000
F142        F  0.08907337  0.33264343  0.24757854    -0.23200
F143        F  0.05157527  0.34180159  0.29253497    -0.20500
F144        F  0.08432086  0.38843620  0.24422949    -0.20200
F145        F  0.40170614  0.21441821  0.16189276    -0.20200
F146        F  0.42524081  0.26090516  0.11267927    -0.20600
F147        F  0.38715404  0.26440451  0.16139071    -0.23200
C148        C  0.30648574  0.97905265  0.46767532    -0.06100
C149        C  0.26694428  0.44542941  0.46215272    -0.00100
C150        C  0.25955927  0.41758063  0.43082326    -0.08700
C151        C  0.29158405  0.42500257  0.40501267    -0.06100
C152        C  0.33064325  0.45955451  0.40888845    -0.00200
C153        C  0.33842305  0.98694785  0.44153197    -0.08600
C154        C  0.37917828  0.02445061  0.44847129     0.61700
H155        H  0.31122192  0.00033247  0.49139087     0.12400
H156        H  0.28559775  0.40435837  0.38034123     0.12500
C157        C  0.21810721  0.37994422  0.42468344     0.62000
F158        F  0.38107874  0.04378054  0.48409816    -0.23200
F159        F  0.38621419  0.05134168  0.41786787    -0.20500
F160        F  0.40875483  0.01376325  0.44975034    -0.20200
F161        F  0.19089948  0.39055684  0.40974551    -0.20200
F162        F  0.20397324  0.36003213  0.46062623    -0.20600
F163        F  0.21966034  0.35308441  0.39800513    -0.23200
C164        C  0.12430198  0.48105846  0.40438266    -0.06100
C165        C  0.08565220  0.46739841  0.42065096    -0.00100
C166        C  0.07690679  0.44917612  0.45899059    -0.08700
C167        C  0.10709799  0.44441481  0.47882169    -0.06100
C168        C  0.14550629  0.45768424  0.46193154    -0.00200
C169        C  0.15469198  0.47756705  0.42438522    -0.08600
C170        C  0.19655884  0.49660628  0.40538742     0.60500
H171        H  0.13107093  0.49557426  0.37550511     0.12400
H172        H  0.10130146  0.43019462  0.00763584     0.12500
C173        C  0.03622669  0.43452882  0.47888868     0.62000
F174        F  0.20028137  0.52119483  0.37339663    -0.23200
F175        F  0.20343574  0.46662856  0.39124641    -0.20500
F176        F  0.22675369  0.02025481  0.43271617    -0.20200
F177        F  0.00519355  0.40639429  0.45475802    -0.20200
F178        F  0.03141209  0.96812489  0.48565046    -0.20600
F179        F  0.03468448  0.41725398  0.01560385    -0.23200
C180        C  0.29219079  0.49865252  0.20738257    -0.06100
C181        C  0.27923544  0.47122206  0.17521534    -0.00100
C182        C  0.29689986  0.44647441  0.17013228    -0.08700
C183        C  0.32570494  0.44915760  0.19857785    -0.06100
C184        C  0.33767720  0.47585036  0.23136225    -0.00200
C185        C  0.32085605  0.50145735  0.23568761    -0.08600
C186        C  0.33159349  0.53074698  0.27063524     0.61700
H187        H  0.27904982  0.51787389  0.21050500     0.12400
H188        H  0.33908737  0.43015150  0.19554334     0.12500
C189        C  0.28492454  0.41663323  0.13570605     0.62000
F190        F  0.30744156  0.54824307  0.27155719    -0.23200
F191        F  0.37141497  0.56176641  0.26744302    -0.20500
F192        F  0.32596586  0.01010187  0.30664518    -0.20200
F193        F  0.29730350  0.43761261  0.10010299    -0.20200
F194        F  0.24326654  0.39099214  0.13494328    -0.20600
F195        F  0.30276163  0.39288847  0.13894409    -0.23200
C196        C  0.09019859  0.47834686  0.18065032    -0.06100
C197        C  0.09545505  0.48123653  0.22228117    -0.00100
C198        C  0.13099097  0.48270807  0.23886976    -0.08700
C199        C  0.15756880  0.47875718  0.21320759    -0.06100
C200        C  0.15212164  0.47470639  0.17162488    -0.00200
C201        C  0.11806685  0.47571452  0.15479931    -0.08600
C202        C  0.11077281  0.47447358  0.11008912     0.61700
H203        H  0.06344564  0.47780090  0.16834477     0.12400
H204        H  0.18348918  0.47842549  0.22632990     0.12500
C205        C  0.14202606  0.48809004  0.28344214     0.62000
F206        F  0.07762204  0.47862954  0.10076872    -0.23200
F207        F  0.10336302  0.43775685  0.09465615    -0.20500
F208        F  0.14434312  0.50603132  0.09198275    -0.20200
F209        F  0.11374841  0.45476001  0.30464519    -0.20200
F210        F  0.14459473  0.02433185  0.29724471    -0.20600
F211        F  0.17951485  0.49187499  0.29117126    -0.23200
C212        C  0.31093141  0.30349805  0.42580013    -0.06100
C213        C  0.30984254  0.31306697  0.46612046    -0.00100
C214        C  0.34101054  0.35141611  0.48072013    -0.08700
C215        C  0.37275479  0.37733225  0.45475481    -0.06100
C216        C  0.37359800  0.36748666  0.41438554    -0.00200
C217        C  0.34091303  0.33005424  0.39929505    -0.08600
C218        C  0.33609565  0.31742931  0.35540668     0.61700
H219        H  0.28730776  0.27450129  0.41457393     0.12400
H220        H  0.39703663  0.40614942  0.46580509     0.12500
C221        C  0.34040665  0.36581716  0.02264060     0.62000
F222        F  0.30316010  0.27896952  0.34868994    -0.23200
F223        F  0.36999753  0.31695986  0.34210525    -0.20500
F224        F  0.32993211  0.34414631  0.33287057    -0.20200
F225        F  0.34750646  0.34301556  0.05008677    -0.20200
F226        F  0.30312297  0.36240006  0.02980540    -0.20600
F227        F  0.36993752  0.40609006  0.02831089    -0.23200
C228        C  0.18592205  0.15409731  0.46020453    -0.06100
C229        C  0.17967752  0.18639711  0.46797988    -0.00100
C230        C  0.14514080  0.18617961  0.45267850    -0.08700
C231        C  0.11917810  0.15461552  0.42681536    -0.06100
C232        C  0.12665413  0.12319207  0.41615508    -0.00200
C233        C  0.15955241  0.12177320  0.43524201    -0.08600
C234        C  0.16643534  0.08615937  0.43122998     0.61700
H235        H  0.21231512  0.15489167  0.47348783     0.12400
H236        H  0.09334569  0.15515068  0.41393452     0.12500
C237        C  0.13635258  0.21956684  0.46330027     0.62000
F238        F  0.19717095  0.08962574  0.45618863    -0.23200
F239        F  0.17696472  0.08304322  0.39251798    -0.20500
F240        F  0.13124214  0.05141667  0.44194846    -0.20200
F241        F  0.16640975  0.25604771  0.44804866    -0.20200
F242        F  0.13621123  0.22323938  0.00381232    -0.20600
F243        F  0.09926670  0.21193347  0.44808685    -0.23200
C244        C  0.34213731  0.35796580  0.23268200    -0.06100
C245        C  0.38114556  0.37748261  0.21604218    -0.00100
C246        C  0.38622849  0.36773097  0.17662758    -0.08700
C247        C  0.35253851  0.33520187  0.15719393    -0.06100
C248        C  0.31413801  0.31377378  0.17549876    -0.00200
C249        C  0.30831912  0.32720050  0.21294085    -0.08600
C250        C  0.26699604  0.30990371  0.23259860     0.61700
H251        H  0.33818680  0.36646771  0.26228231     0.12400
H252        H  0.35620768  0.32573361  0.12783038     0.12500
C253        C  0.42662137  0.39105916  0.15548739     0.62000
F254        F  0.26767945  0.33441081  0.26343619    -0.23200
F255        F  0.25537491  0.27218686  0.24846201    -0.20500
F256        F  0.23841087  0.30685985  0.20497080    -0.20200
F257        F  0.45656891  0.38903632  0.17709790    -0.20200
F258        F  0.43692558  0.43121218  0.15168891    -0.20600
F259        F  0.42506259  0.37579428  0.11761551    -0.23200
C260        C  0.17221721  0.19651211  0.21170337    -0.06100
C261        C  0.18723868  0.18283656  0.18103258    -0.00100
C262        C  0.17371807  0.14084319  0.17819142    -0.08700
C263        C  0.14575069  0.11406159  0.20665279    -0.06100
C264        C  0.13120373  0.12804059  0.23770255    -0.00200
C265        C  0.14494683  0.17018787  0.24042770    -0.08600
C266        C  0.13255077  0.18802377  0.27441441     0.61700
H267        H  0.18256945  0.22858577  0.21326423     0.12400
H268        H  0.13522039  0.08190886  0.20507597     0.12500
C269        C  0.18993070  0.12469234  0.14632304     0.62000
F270        F  0.15529317  0.23000355  0.27516671    -0.23200
F271        F  0.13829067  0.17425281  0.31073424    -0.20500
F272        F  0.09218477  0.17693604  0.26999012    -0.20200
F273        F  0.23184122  0.14430150  0.14902850    -0.20200
F274        F  0.17874839  0.13130239  0.10896445    -0.20600
F275        F  0.17494293  0.08344524  0.15036192    -0.23200
C276        C  0.22004855  0.21492128  0.65633655     0.79900
N277        N  0.25158351  0.24681342  0.67524133    -0.78400
C278        C  0.28045329  0.27887797  0.65461758     0.82400
N279        N  0.27810784  0.27866350  0.61431440    -0.78300
C280        C  0.24698849  0.24715685  0.59470723     0.82500
N281        N  0.21756008  0.21528189  0.61573590    -0.80000
C282        C  0.21157565  0.22042898  0.99036535     0.79900
N283        N  0.21306204  0.21897365  0.53079748    -0.78400
C284        C  0.24515305  0.24879559  0.55104233     0.82400
N285        N  0.27609458  0.27986921  0.53065049    -0.78300
C286        C  0.27512043  0.28132689  0.98999272     0.82500
N287        N  0.24232334  0.25137750  0.97038396    -0.80000
C288        C  0.24516372  0.46828890  0.65074330     0.79900
N289        N  0.24253148  0.46218268  0.61062419    -0.78400
C290        C  0.21074473  0.45995577  0.58960095     0.82400
N291        N  0.18169933  0.46414809  0.60886885    -0.78300
C292        C  0.18400088  0.47064913  0.64887775     0.82500
N293        N  0.21599946  0.47261794  0.66914698    -0.80000
C294        C  0.23402187  0.44465358  0.98557588     0.79900
N295        N  0.23652495  0.44963612  0.52596842    -0.78400
C296        C  0.20805448  0.45416667  0.54601227     0.82400
N297        N  0.17798206  0.45559652  0.52531020    -0.78300
C298        C  0.17612778  0.45201820  0.98469336     0.82500
N299        N  0.20385830  0.44612810  0.96550262    -0.80000
C300        C  0.48723649  0.24089519  0.65101869     0.79900
N301        N  0.48648614  0.20949989  0.67068597    -0.78400
C302        C  0.48645085  0.17839006  0.65084835     0.82400
N303        N  0.48775266  0.17974715  0.61039005    -0.78300
C304        C  0.48921299  0.21136797  0.59013449     0.82500
N305        N  0.48893230  0.24202633  0.61054360    -0.80000
C306        C  0.49691005  0.24436952  0.98477607     0.79900
N307        N  0.49437115  0.24416330  0.52544498    -0.78400
C308        C  0.49176919  0.21235059  0.54639447     0.82400
N309        N  0.49067554  0.18068235  0.52664567    -0.78300
C310        C  0.49225631  0.18038157  0.98613582     0.82500
N311        N  0.49585091  0.21262889  0.96569487    -0.80000
O312        O  0.39163049  0.00662466  0.77843921    -0.88500
C313        C  0.10043006  0.09439571  0.88383672     1.11600
O314        O  0.44224025  0.47399346  0.82001741    -1.36300
O315        O  0.07247346  0.10082572  0.77849708    -0.90000
O316        O  0.36164706  0.44062150  0.77127489    -0.90600
O317        O  0.44610220  0.43703376  0.73281589    -0.79400
O318        O  0.48214316  0.05261246  0.78721654    -1.01500
C319        C  0.06357449  0.48142197  0.74802489     1.21600
O320        O  0.48613271  0.43378862  0.81875260    -1.36400
Mn321      Mn  0.48381884  0.47319791  0.86464914     1.82100
O322        O  0.03214844  0.48123457  0.73564895    -0.78500
O323        O  0.11136371  0.07273958  0.78270129    -0.87900
C324        C  0.05667417  0.47204310  0.89445303     1.12700
C325        C  0.10310460  0.09853810  0.76788348     1.07400
O326        O  0.43918101  0.42814991  0.90271386    -0.79500
O327        O  0.02713273  0.01842229  0.82286876    -1.33200
O328        O  0.40581356  0.39407552  0.85273320    -0.98700
C329        C  0.49001607  0.36046324  0.75943969     1.06100
Mn330      Mn  0.08527755  0.02501618  0.82501246     1.48600
O331        O  0.45533559  0.35331131  0.77126295    -0.87900
Mn332      Mn  0.38566477  0.41939214  0.81580474     1.49600
O333        O  0.38985716  0.00081573  0.86815617    -0.91700
C334        C  0.48328661  0.05080172  0.75121162     1.19300
C335        C  0.36197300  0.46585123  0.87800185     1.11400
Mn336      Mn  0.48700102  0.47790675  0.77653578     1.81000
O337        O  0.06260789  0.47561812  0.85872831    -0.96900
Mn338      Mn  0.43534835  0.02484767  0.82335003     1.49300
C339        C  0.36579774  0.47484475  0.76213926     1.07900
Mn340      Mn  0.04007891  0.43114498  0.82003295     1.49900
C341        C  0.48626158  0.35609450  0.87450828     1.10800
O342        O  0.40994637  0.39860090  0.77889346    -1.02700
O343        O  0.10613324  0.06606532  0.87243882    -0.92400
C344        C  0.41465592  0.40527230  0.74334452     1.22100
O345        O  0.06712427  0.48009819  0.78441805    -1.03100
O346        O  0.07390156  0.10061669  0.86752873    -0.90500
O347        O  0.02011266  0.38495280  0.86243041    -0.90100
O348        O  0.35735714  0.43435212  0.86029766    -0.90100
Mn349      Mn  0.02920452  0.07467263  0.82331768     1.47900
O350        O  0.02503118  0.47090861  0.90630018    -0.78600
C351        C  0.40809979  0.39744097  0.88881212     1.15100
O352        O  0.48636440  0.02178423  0.73747789    -0.77300
O353        O  0.48341902  0.01407384  0.90824034    -0.76900
Mn354      Mn  0.43339237  0.37607674  0.81588188     1.51100
O355        O  0.02282320  0.38915399  0.77378643    -0.89300
O356        O  0.48280889  0.05127504  0.86150606    -0.96800
O357        O  0.45268271  0.35057723  0.86068283    -0.91800
C358        C  0.48382207  0.04584781  0.89768427     1.12900
C359        C  0.50391372  0.12166403  0.98225080    -0.06100
C360        C  0.48846671  0.14471690  0.96437443    -0.00100
C361        C  0.46892955  0.13264405  0.92653198    -0.08700
C362        C  0.46882671  0.10040911  0.90694628    -0.06100
C363        C  0.48449160  0.07745605  0.92416901    -0.00200
C364        C  0.50179106  0.08769971  0.96286258    -0.08600
C365        C  0.51825141  0.06345407  0.98317331     0.61700
H366        H  0.51807848  0.13086730  0.51152751     0.12400
H367        H  0.45504889  0.09213059  0.87760316     0.12500
C368        C  0.44636322  0.15180049  0.90689430     0.62000
F369        F  0.53571841  0.07998109  0.51991442    -0.23200
F370        F  0.04748020  0.06274768  0.95968391    -0.20500
F371        F  0.48694539  0.02414935  0.98911844    -0.20200
F372        F  0.97379191  0.18979721  0.89223597    -0.20200
F373        F  0.42104157  0.15486109  0.93425653    -0.20600
F374        F  0.42221470  0.12882935  0.87511004    -0.23200
C375        C  0.45695173  0.26489918  0.94388035    -0.06100
C376        C  0.49463917  0.27543762  0.96063554    -0.00100
C377        C  0.52929257  0.31235450  0.95016312    -0.08700
C378        C  0.52486001  0.33819987  0.92314925    -0.06100
C379        C  0.48697597  0.32774560  0.90540185    -0.00200
C380        C  0.45222134  0.29000085  0.91625362    -0.08600
C381        C  0.41009762  0.27546221  0.89927800     0.61700
H382        H  0.43114453  0.23594233  0.95217254     0.12400
H383        H  0.05152330  0.36663684  0.91522275     0.12500
C384        C  0.57080810  0.32368786  0.46675893     0.62000
F385        F  0.38163013  0.23747630  0.91319069    -0.23200
F386        F  0.41047409  0.27293105  0.85808518    -0.20500
F387        F  0.39776337  0.30218948  0.91073790    -0.20200
F388        F  0.07984471  0.29397330  0.45675890    -0.20200
F389        F  0.57078222  0.32691236  0.50788014    -0.20600
F390        F  0.10111066  0.36021309  0.45177481    -0.23200
C391        C  0.98690617  0.08130787  0.68416842    -0.06100
C392        C  0.48349233  0.08329706  0.72577956    -0.00100
C393        C  0.48111572  0.11664673  0.74204530    -0.08700
C394        C  0.48137977  0.14546566  0.71591824    -0.06100
C395        C  0.48521750  0.14405677  0.67432650    -0.00200
C396        C  0.98824900  0.11111072  0.65799767    -0.08600
C397        C  0.99326151  0.10686320  0.61354778     0.61700
H398        H  0.98890910  0.05607823  0.67216459     0.12400
H399        H  0.47887369  0.17012417  0.72849848     0.12500
C400        C  0.47872413  0.12320336  0.78673204     0.62000
F401        F  0.99676013  0.07327474  0.60505113    -0.23200
F402        F  0.02813272  0.14066051  0.60008933    -0.20500
F403        F  0.95977019  0.10245864  0.59277821    -0.20200
F404        F  0.51300961  0.12798331  0.80607910    -0.20200
F405        F  0.44443688  0.09067847  0.80249632    -0.20600
F406        F  0.47643133  0.15754862  0.79487913    -0.23200
C407        C  0.02318774  0.29728367  0.69842757    -0.06100
C408        C  0.48883748  0.27446566  0.67443185    -0.00100
C409        C  0.45555136  0.28088808  0.67697224    -0.08700
C410        C  0.45790443  0.31044365  0.70380998    -0.06100
C411        C  0.49211346  0.33315454  0.72865790    -0.00200
C412        C  0.02562048  0.32637973  0.72581711    -0.08600
C413        C  0.06327008  0.34795549  0.75241853     0.61700
H414        H  0.04792745  0.29118599  0.69611175     0.12400
H415        H  0.43234182  0.31522800  0.70628033     0.12500
C416        C  0.41704946  0.25518121  0.65282550     0.62000
F417        F  0.08954277  0.33333272  0.74694628    -0.23200
F418        F  0.05220434  0.34237627  0.79219209    -0.20500
F419        F  0.08436107  0.38887587  0.74362768    -0.20200
F420        F  0.40168237  0.21461893  0.66159162    -0.20200
F421        F  0.42556394  0.26127118  0.61253321    -0.20600
F422        F  0.38734243  0.26475441  0.66110773    -0.23200
C423        C  0.30637556  0.97821440  0.96796313    -0.06100
C424        C  0.26727056  0.44519469  0.96234349    -0.00100
C425        C  0.25983281  0.41780872  0.93053476    -0.08700
C426        C  0.29190556  0.42542072  0.90474964    -0.06100
C427        C  0.33113793  0.45953790  0.90928735    -0.00200
C428        C  0.33831961  0.98602821  0.94185602    -0.08600
C429        C  0.37919292  0.02329913  0.94899565     0.61700
H430        H  0.31118439  0.99945706  0.99174141     0.12400
H431        H  0.28585637  0.40526926  0.87961384     0.12500
C432        C  0.21833636  0.38035257  0.92392443     0.62000
F433        F  0.38126979  0.04225363  0.98492033    -0.23200
F434        F  0.38627942  0.05054968  0.91874882    -0.20500
F435        F  0.40863420  0.01241006  0.94979521    -0.20200
F436        F  0.19131161  0.39124573  0.90909524    -0.20200
F437        F  0.20391724  0.36000415  0.95961586    -0.20600
F438        F  0.21995800  0.35376150  0.89693378    -0.23200
C439        C  0.12456020  0.48083251  0.90404251    -0.06100
C440        C  0.08600339  0.46740568  0.92046199    -0.00100
C441        C  0.07738251  0.44942069  0.95890299    -0.08700
C442        C  0.10754144  0.44456642  0.97864788    -0.06100
C443        C  0.14586713  0.45765338  0.96164956    -0.00200
C444        C  0.15499126  0.47740294  0.92404174    -0.08600
C445        C  0.19684175  0.49642784  0.90501152     0.60500
H446        H  0.13127234  0.49523602  0.87511441     0.12400
H447        H  0.10080372  0.42992304  0.50775188     0.12500
C448        C  0.03688877  0.43517639  0.97903543     0.62000
F449        F  0.20055136  0.52104684  0.87305557    -0.23200
F450        F  0.20368156  0.46644638  0.89082785    -0.20500
F451        F  0.22674177  0.01967557  0.93274102    -0.20200
F452        F  0.00561030  0.40692128  0.95520675    -0.20200
F453        F  0.03110510  0.96737086  0.98551191    -0.20600
F454        F  0.03387027  0.41629871  0.51530775    -0.23200
C455        C  0.29306024  0.49974800  0.70713900    -0.06100
C456        C  0.27977286  0.47198638  0.67523853    -0.00100
C457        C  0.29715427  0.44696034  0.67042555    -0.08700
C458        C  0.32584567  0.44955691  0.69897184    -0.06100
C459        C  0.33811772  0.47653637  0.73154584    -0.00200
C460        C  0.32178977  0.50263107  0.73543910    -0.08600
C461        C  0.33323006  0.53266238  0.76982268     0.61700
H462        H  0.28016192  0.51920700  0.71001531     0.12400
H463        H  0.33893115  0.43026832  0.69615611     0.12500
C464        C  0.28501880  0.41694511  0.63614607     0.62000
F465        F  0.30969298  0.55084492  0.77028360    -0.23200
F466        F  0.37323555  0.56312386  0.76611834    -0.20500
F467        F  0.32661161  0.01062397  0.80635283    -0.20200
F468        F  0.29742811  0.43775937  0.60045771    -0.20200
F469        F  0.24333924  0.39144758  0.63545660    -0.20600
F470        F  0.30270767  0.39307720  0.63952547    -0.23200
C471        C  0.09044270  0.47865476  0.68065897    -0.06100
C472        C  0.09567875  0.48156084  0.72228270    -0.00100
C473        C  0.13128050  0.48318280  0.73890178    -0.08700
C474        C  0.15794772  0.47935523  0.71326999    -0.06100
C475        C  0.15250684  0.47526207  0.67170156    -0.00200
C476        C  0.11838842  0.47613284  0.65484062    -0.08600
C477        C  0.11110034  0.47486592  0.61012654     0.61700
H478        H  0.06363835  0.47798955  0.66833685     0.12400
H479        H  0.18392146  0.47913256  0.72639809     0.12500
C480        C  0.14228761  0.48856577  0.78347507     0.62000
F481        F  0.07792955  0.47898107  0.60078458    -0.23200
F482        F  0.10372457  0.43815337  0.59471363    -0.20500
F483        F  0.14465656  0.50643848  0.59201784    -0.20200
F484        F  0.11408115  0.45515882  0.80463709    -0.20200
F485        F  0.14464967  0.02498579  0.79719416    -0.20600
F486        F  0.17984115  0.49250927  0.79121728    -0.23200
C487        C  0.31139690  0.30319976  0.92574160    -0.06100
C488        C  0.31013102  0.31277857  0.96601504    -0.00100
C489        C  0.34104881  0.35125761  0.98060071    -0.08700
C490        C  0.37281006  0.37727246  0.95469895    -0.06100
C491        C  0.37382198  0.36743405  0.91436118    -0.00200
C492        C  0.34129339  0.32990642  0.89924778    -0.08600
C493        C  0.33651325  0.31735313  0.85534117     0.61700
H494        H  0.28794491  0.27410029  0.91453974     0.12400
H495        H  0.39693484  0.40617657  0.96575705     0.12500
C496        C  0.34070741  0.36592585  0.52286776     0.62000
F497        F  0.30372888  0.27880584  0.84860505    -0.23200
F498        F  0.37051566  0.31714787  0.84194393    -0.20500
F499        F  0.33011614  0.34396725  0.83289566    -0.20200
F500        F  0.34756887  0.34278798  0.55009643    -0.20200
F501        F  0.30365145  0.36293796  0.53027120    -0.20600
F502        F  0.37058702  0.40605481  0.52862819    -0.23200
C503        C  0.18566306  0.15351641  0.96037715    -0.06100
C504        C  0.17984168  0.18613952  0.96781767    -0.00100
C505        C  0.14552039  0.18622578  0.95232673    -0.08700
C506        C  0.11943172  0.15468276  0.92650962    -0.06100
C507        C  0.12652309  0.12294192  0.91615134    -0.00200
C508        C  0.15911078  0.12117782  0.93552474    -0.08600
C509        C  0.16544041  0.08518013  0.93195898     0.61700
H510        H  0.21186015  0.15405190  0.97383939     0.12400
H511        H  0.09381457  0.15548147  0.91342710     0.12500
C512        C  0.13705160  0.21986904  0.96275294     0.62000
F513        F  0.19573272  0.08827436  0.95734587    -0.23200
F514        F  0.17625326  0.08180120  0.89344403    -0.20500
F515        F  0.12988070  0.05071992  0.94247483    -0.20200
F516        F  0.16729124  0.25619286  0.94740766    -0.20200
F517        F  0.13550065  0.22276789  0.50437800    -0.20600
F518        F  0.10006126  0.21245287  0.94747406    -0.23200
C519        C  0.34210128  0.35829657  0.73293177    -0.06100
C520        C  0.38105856  0.37781916  0.71615220    -0.00100
C521        C  0.38596502  0.36812980  0.67665778    -0.08700
C522        C  0.35218049  0.33566854  0.65726337    -0.06100
C523        C  0.31384956  0.31419725  0.67569940    -0.00200
C524        C  0.30819421  0.32752651  0.71327246    -0.08600
C525        C  0.26695877  0.31010505  0.73315672     0.61700
H526        H  0.33827581  0.36679027  0.76257913     0.12400
H527        H  0.35573371  0.32626584  0.62782728     0.12500
C528        C  0.42628179  0.39144550  0.65539138     0.62000
F529        F  0.26777349  0.33442921  0.76424401    -0.23200
F530        F  0.25540618  0.27229849  0.74874596    -0.20500
F531        F  0.23824283  0.30719683  0.70577158    -0.20200
F532        F  0.45627876  0.38935493  0.67684063    -0.20200
F533        F  0.43660930  0.43161384  0.65168711    -0.20600
F534        F  0.42457425  0.37621152  0.61747206    -0.23200
C535        C  0.17176986  0.19660741  0.71170716    -0.06100
C536        C  0.18706229  0.18306997  0.68117328    -0.00100
C537        C  0.17381645  0.14113197  0.67841520    -0.08700
C538        C  0.14581675  0.11425959  0.70681023    -0.06100
C539        C  0.13096307  0.12808978  0.73772028    -0.00200
C540        C  0.14443068  0.17019150  0.74034433    -0.08600
C541        C  0.13166030  0.18790233  0.77413106     0.61700
H542        H  0.18196773  0.22865217  0.71322692     0.12400
H543        H  0.13551460  0.08215364  0.70529934     0.12500
C544        C  0.19039267  0.12515460  0.64673625     0.62000
F545        F  0.15408069  0.22989751  0.77477768    -0.23200
F546        F  0.13743270  0.17435918  0.81057064    -0.20500
F547        F  0.09121966  0.17645419  0.76949363    -0.20200
F548        F  0.23229309  0.14493909  0.64974540    -0.20200
F549        F  0.17942307  0.13173231  0.60925962    -0.20600
F550        F  0.17555985  0.08393452  0.65077344    -0.23200
C551        C  0.22108292  0.71381433  0.15674929     0.79900
N552        N  0.25260720  0.74574505  0.17563902    -0.78400
C553        C  0.28168873  0.77759524  0.15494712     0.82400
N554        N  0.27958217  0.77712907  0.11463330    -0.78300
C555        C  0.24849411  0.74558837  0.09505333     0.82500
N556        N  0.21883928  0.71394270  0.11612133    -0.80000
C557        C  0.21230547  0.71986248  0.49053786     0.79900
N558        N  0.21454812  0.71746463  0.03115781    -0.78400
C559        C  0.24676958  0.74712324  0.05138446     0.82400
N560        N  0.27775696  0.77814624  0.03099563    -0.78300
C561        C  0.27592830  0.78069283  0.49022695     0.82500
N562        N  0.24306275  0.75084670  0.47059251    -0.80000
C563        C  0.24489050  0.96773685  0.15074809     0.79900
N564        N  0.24235305  0.96171089  0.11062783    -0.78400
C565        C  0.21062524  0.95953835  0.08954991     0.82400
N566        N  0.18155837  0.96375352  0.10876074    -0.78300
C567        C  0.18375920  0.97014697  0.14879010     0.82500
N568        N  0.21568502  0.97202203  0.16910196    -0.80000
C569        C  0.23402115  0.94487563  0.48551876     0.79900
N570        N  0.23654138  0.94920224  0.02602997    -0.78400
C571        C  0.20802564  0.95373579  0.04597335     0.82400
N572        N  0.17801604  0.95517514  0.02517963    -0.78300
C573        C  0.17604742  0.95209321  0.48479814     0.82500
N574        N  0.20371942  0.94616662  0.46553324    -0.80000
C575        C  0.48839084  0.74155768  0.15103203     0.79900
N576        N  0.48743418  0.71007674  0.17071844    -0.78400
C577        C  0.48732090  0.67892203  0.15090847     0.82400
N578        N  0.48873784  0.68030580  0.11046484    -0.78300
C579        C  0.49040029  0.71199719  0.09017517     0.82500
N580        N  0.49018626  0.74271689  0.11054865    -0.80000
C581        C  0.49718635  0.74440912  0.48479855     0.79900
N582        N  0.49546307  0.74453148  0.02530865    -0.78400
C583        C  0.49290065  0.71282380  0.04642830     0.82400
N584        N  0.49162047  0.68098586  0.02684198    -0.78300
C585        C  0.49226199  0.68030273  0.48619933     0.82500
N586        N  0.49594461  0.71257162  0.46573108    -0.80000
O587        O  0.39172705  0.50709418  0.27830967    -0.88500
C588        C  0.10035814  0.59414491  0.38409834     1.11600
O589        O  0.44226347  0.97398568  0.31989221    -1.36300
O590        O  0.07272453  0.60078038  0.27873633    -0.90000
O591        O  0.36148936  0.94020387  0.27134787    -0.90600
O592        O  0.44630505  0.93686994  0.23289031    -0.79400
O593        O  0.48226945  0.55284671  0.28728592    -1.01500
C594        C  0.06371746  0.98146542  0.24807272     1.21600
O595        O  0.48636457  0.93397676  0.31886155    -1.36400
Mn596      Mn  0.48391913  0.97346640  0.36459703     1.82100
O597        O  0.03224135  0.98117760  0.23570517    -0.78500
O598        O  0.11131880  0.57234657  0.28298871    -0.87900
C599        C  0.05688253  0.97260616  0.39457093     1.12700
C600        C  0.10325103  0.59826809  0.26816286     1.07400
O601        O  0.43939357  0.92841828  0.40279336    -0.79500
O602        O  0.02696569  0.51833244  0.32295922    -1.33200
O603        O  0.40611069  0.89417907  0.35287510    -0.98700
C604        C  0.49043157  0.86057890  0.25977146     1.06100
Mn605      Mn  0.08499961  0.52467948  0.32520780     1.48600
O606        O  0.45571692  0.85340467  0.27151284    -0.87900
Mn607      Mn  0.38575999  0.91928458  0.31590336     1.49600
O608        O  0.38975009  0.50113922  0.36805322    -0.91700
C609        C  0.48345606  0.55105496  0.25128390     1.19300
C610        C  0.36192194  0.96595453  0.37775027     1.11400
Mn611      Mn  0.48709171  0.97791326  0.27648149     1.81000
O612        O  0.06283439  0.97607075  0.35883897    -0.96900
Mn613      Mn  0.43536061  0.52513204  0.32331780     1.49300
C614        C  0.36559003  0.97435629  0.26201553     1.07900
Mn615      Mn  0.04038606  0.93145751  0.32025863     1.49900
C616        C  0.48666316  0.85637356  0.37471485     1.10800
O617        O  0.41012037  0.89850002  0.27902558    -1.02700
O618        O  0.10599419  0.56576743  0.37267288    -0.92400
C619        C  0.41492280  0.90508529  0.24346567     1.22100
O620        O  0.06740654  0.98032795  0.28448077    -1.03100
O621        O  0.07388147  0.60044193  0.36778572    -0.90500
O622        O  0.02048217  0.88532393  0.36275769    -0.90100
O623        O  0.35742160  0.93432618  0.36039213    -0.90100
Mn624      Mn  0.02927628  0.57469669  0.32345578     1.47900
O625        O  0.02520953  0.97145750  0.40634300    -0.78600
C626        C  0.40841533  0.89756151  0.38894735     1.15100
O627        O  0.48644717  0.52199149  0.23754328    -0.77300
O628        O  0.48318182  0.51400590  0.40824420    -0.76900
Mn629      Mn  0.43370490  0.87618096  0.31606766     1.51100
O630        O  0.02318826  0.88931194  0.27413517    -0.89300
O631        O  0.48277500  0.55136390  0.36155273    -0.96800
O632        O  0.45307608  0.85081209  0.36088023    -0.91800
C633        C  0.48369391  0.54583466  0.39771995     1.12900
C634        C  0.50396918  0.62164777  0.48226651    -0.06100
C635        C  0.48836258  0.64459660  0.46448107    -0.00100
C636        C  0.46861109  0.63241635  0.42675610    -0.08700
C637        C  0.46856581  0.60025396  0.40709835    -0.06100
C638        C  0.48435386  0.57737982  0.42424266    -0.00200
C639        C  0.50181509  0.58768374  0.46286568    -0.08600
C640        C  0.51846946  0.56354974  0.48306033     0.61700
H641        H  0.51897287  0.63096842  0.01168676     0.12400
H642        H  0.45468476  0.59193147  0.37779745     0.12500
C643        C  0.44568556  0.65131806  0.40738313     0.62000
F644        F  0.53647213  0.57995289  0.02008173    -0.23200
F645        F  0.04770823  0.56298314  0.45937826    -0.20500
F646        F  0.48728304  0.52420414  0.48907686    -0.20200
F647        F  0.97272294  0.68928328  0.39255873    -0.20200
F648        F  0.42052495  0.65429019  0.43501360    -0.20600
F649        F  0.42131598  0.62816657  0.37578962    -0.23200
C650        C  0.45740028  0.76465445  0.44327445    -0.06100
C651        C  0.49492514  0.77548044  0.46062897    -0.00100
C652        C  0.52948755  0.81270471  0.45069606    -0.08700
C653        C  0.52509308  0.83857877  0.42367623    -0.06100
C654        C  0.48734917  0.82790450  0.40546760    -0.00200
C655        C  0.45271678  0.78980376  0.41567465    -0.08600
C656        C  0.41076539  0.77491770  0.39803360     0.61700
H657        H  0.43167875  0.73546604  0.45112971     0.12400
H658        H  0.05161550  0.86725902  0.41621600     0.12500
C659        C  0.57122255  0.82457159  0.96807369     0.62000
F660        F  0.38251503  0.73649779  0.41115519    -0.23200
F661        F  0.41191515  0.77318155  0.35682673    -0.20500
F662        F  0.39757285  0.80092122  0.40966011    -0.20200
F663        F  0.08094032  0.79522999  0.95838168    -0.20200
F664        F  0.57038177  0.82753930  0.00916330    -0.20600
F665        F  0.10147758  0.86128309  0.95342921    -0.23200
C666        C  0.98735622  0.58166131  0.18424445    -0.06100
C667        C  0.48377311  0.58359477  0.22585189    -0.00100
C668        C  0.48134439  0.61692382  0.24209116    -0.08700
C669        C  0.48174234  0.64579488  0.21595067    -0.06100
C670        C  0.48582484  0.64448084  0.17438838    -0.00200
C671        C  0.98887045  0.61153446  0.15807079    -0.08600
C672        C  0.99411218  0.60737916  0.11365153     0.61700
H673        H  0.98939329  0.55644295  0.17226290     0.12400
H674        H  0.47917853  0.67043351  0.22849781     0.12500
C675        C  0.47879922  0.62342332  0.28676235     0.62000
F676        F  0.99761612  0.57378736  0.10519148    -0.23200
F677        F  0.02907510  0.64118675  0.10036471    -0.20500
F678        F  0.96074394  0.60305452  0.09270267    -0.20200
F679        F  0.51302604  0.62817289  0.30621804    -0.20200
F680        F  0.44444865  0.59088498  0.30242263    -0.20600
F681        F  0.47648953  0.65776514  0.29488088    -0.23200
C682        C  0.02409098  0.79789164  0.19853538    -0.06100
C683        C  0.48982718  0.77503294  0.17447562    -0.00100
C684        C  0.45631292  0.78106911  0.17721787    -0.08700
C685        C  0.45842854  0.81040711  0.20420704    -0.06100
C686        C  0.49262884  0.83327891  0.22902695    -0.00200
C687        C  0.02625772  0.82670966  0.22614143    -0.08600
C688        C  0.06371902  0.84811900  0.25301028     0.61700
H689        H  0.04896367  0.79200111  0.19615080     0.12400
H690        H  0.43268061  0.81487586  0.20681715     0.12500
C691        C  0.41782527  0.75515644  0.15312062     0.62000
F692        F  0.09001240  0.83350543  0.24763870    -0.23200
F693        F  0.05235054  0.84228463  0.29270044    -0.20500
F694        F  0.08489648  0.88909753  0.24448456    -0.20200
F695        F  0.40277321  0.71463228  0.16183353    -0.20200
F696        F  0.42625340  0.76133318  0.11281711    -0.20600
F697        F  0.38791068  0.76440432  0.16151161    -0.23200
C698        C  0.30630708  0.47813732  0.46813228    -0.06100
C699        C  0.26736286  0.94578579  0.46218928    -0.00100
C700        C  0.26024858  0.91754124  0.43136830    -0.08700
C701        C  0.29231972  0.92495505  0.40564691    -0.06100
C702        C  0.33112904  0.95995059  0.40902856    -0.00200
C703        C  0.33822098  0.48596702  0.44198006    -0.08600
C704        C  0.37922491  0.52294452  0.44939487     0.61700
H705        H  0.31129386  0.49911216  0.49223900     0.12400
H706        H  0.28652060  0.90393216  0.38138636     0.12500
C707        C  0.21898984  0.87957912  0.42559325     0.62000
F708        F  0.38144629  0.54154471  0.48558534    -0.23200
F709        F  0.38644897  0.55056398  0.41950239    -0.20500
F710        F  0.40847311  0.51178768  0.44978300    -0.20200
F711        F  0.19145624  0.88968883  0.41050235    -0.20200
F712        F  0.20516251  0.86001376  0.46173956    -0.20600
F713        F  0.22075211  0.85261085  0.39921594    -0.23200
C714        C  0.12477836  0.98147529  0.40432556    -0.06100
C715        C  0.08620151  0.96805277  0.42068506    -0.00100
C716        C  0.07745016  0.94986656  0.45904031    -0.08700
C717        C  0.10753883  0.94489166  0.47879244    -0.06100
C718        C  0.14585397  0.95789337  0.46180815    -0.00200
C719        C  0.15507430  0.97776084  0.42425736    -0.08600
C720        C  0.19686858  0.99649726  0.40515874     0.60500
H721        H  0.13157759  0.99601659  0.37545753     0.12400
H722        H  0.10101471  0.92984992  0.00757761     0.12500
C723        C  0.03685262  0.93544158  0.47902978     0.62000
F724        F  0.20072956  0.02120815  0.37323480    -0.23200
F725        F  0.20335483  0.96628272  0.39092983    -0.20500
F726        F  0.22627477  0.52054694  0.43300677    -0.20200
F727        F  0.00570018  0.90728342  0.45501789    -0.20200
F728        F  0.03060534  0.46708573  0.48559983    -0.20600
F729        F  0.03417286  0.91642216  0.01509387    -0.23200
C730        C  0.29236707  0.99879027  0.20749186    -0.06100
C731        C  0.27942233  0.97136994  0.17530950    -0.00100
C732        C  0.29696808  0.94650392  0.17033998    -0.08700
C733        C  0.32574266  0.94916142  0.19880975    -0.06100
C734        C  0.33771286  0.97584767  0.23159203    -0.00200
C735        C  0.32089709  0.00146598  0.23590754    -0.08600
C736        C  0.33140432  0.03054009  0.27101719     0.61700
H737        H  0.27927180  0.01806042  0.21057583     0.12400
H738        H  0.33908944  0.93011538  0.19580637     0.12500
C739        C  0.28485058  0.91651914  0.13603408     0.62000
F740        F  0.30720135  0.04798164  0.27192466    -0.23200
F741        F  0.37123096  0.06162039  0.26813572    -0.20500
F742        F  0.32635612  0.51054178  0.30637805    -0.20200
F743        F  0.29727685  0.93734993  0.10035690    -0.20200
F744        F  0.24316833  0.89102613  0.13532776    -0.20600
F745        F  0.30251636  0.89262912  0.13941876    -0.23200
C746        C  0.09001220  0.97777633  0.18069531    -0.06100
C747        C  0.09569852  0.98145097  0.22226219    -0.00100
C748        C  0.13156670  0.98357783  0.23877454    -0.08700
C749        C  0.15820422  0.97974320  0.21310487    -0.06100
C750        C  0.15231962  0.97486681  0.17160872    -0.00200
C751        C  0.11778462  0.97499376  0.15483858    -0.08600
C752        C  0.10983036  0.97258902  0.11017978     0.61700
H753        H  0.06295382  0.97664823  0.16846176     0.12400
H754        H  0.18450860  0.98012508  0.22616178     0.12500
C755        C  0.14286150  0.98946058  0.28328514     0.62000
F756        F  0.07603240  0.97563932  0.10087558    -0.23200
F757        F  0.10305402  0.93582818  0.09550030    -0.20500
F758        F  0.14277142  0.00417415  0.09134507    -0.20200
F759        F  0.11493748  0.95617408  0.30478417    -0.20200
F760        F  0.14409344  0.52304139  0.29766231    -0.20600
F761        F  0.18057221  0.99374008  0.29092409    -0.23200
C762        C  0.31190565  0.80303275  0.42583085    -0.06100
C763        C  0.31088935  0.81228780  0.46626398    -0.00100
C764        C  0.34200420  0.85059666  0.48101854    -0.08700
C765        C  0.37358293  0.87682373  0.45504585    -0.06100
C766        C  0.37431367  0.86733045  0.41454124    -0.00200
C767        C  0.34170635  0.82989553  0.39933569    -0.08600
C768        C  0.33676671  0.81756945  0.35534043     0.61700
H769        H  0.28834579  0.77404877  0.41451158     0.12400
H770        H  0.39781582  0.90561384  0.46620353     0.12500
C771        C  0.34292573  0.86376886  0.02385589     0.62000
F772        F  0.30388078  0.77910679  0.34850450    -0.23200
F773        F  0.37067033  0.81728919  0.34172863    -0.20500
F774        F  0.33042613  0.84436112  0.33312506    -0.20200
F775        F  0.34993587  0.84010786  0.05027330    -0.20200
F776        F  0.30605689  0.86087119  0.03208971    -0.20600
F777        F  0.37301146  0.90375044  0.02998951    -0.23200
C778        C  0.18498763  0.65230277  0.46152797    -0.06100
C779        C  0.18030545  0.68577700  0.46796972    -0.00100
C780        C  0.14677807  0.68679648  0.45158907    -0.08700
C781        C  0.12045968  0.65530922  0.42582894    -0.06100
C782        C  0.12651977  0.62270199  0.41640519    -0.00200
C783        C  0.15817020  0.62004218  0.43673172    -0.08600
C784        C  0.16318773  0.58319653  0.43420634     0.61700
H785        H  0.21053895  0.65211090  0.47567938     0.12400
H786        H  0.09554175  0.65686075  0.41201095     0.12500
C787        C  0.13936154  0.72133199  0.46105596     0.62000
F788        F  0.19240169  0.58542413  0.46059278    -0.23200
F789        F  0.17466003  0.57923357  0.39617936    -0.20500
F790        F  0.12679431  0.54943438  0.44418516    -0.20200
F791        F  0.17020848  0.75701554  0.44525390    -0.20200
F792        F  0.13814980  0.72309990  0.00483368    -0.20600
F793        F  0.10271703  0.71455549  0.44542629    -0.23200
C794        C  0.34251649  0.85801228  0.23266465    -0.06100
C795        C  0.38161104  0.87735372  0.21622903    -0.00100
C796        C  0.38696878  0.86707952  0.17713547    -0.08700
C797        C  0.35341374  0.83430022  0.15783236    -0.06100
C798        C  0.31489514  0.81310898  0.17593626    -0.00200
C799        C  0.30882880  0.82699291  0.21299883    -0.08600
C800        C  0.26738514  0.80989698  0.23233299     0.61700
H801        H  0.33840837  0.86679981  0.26207707     0.12400
H802        H  0.35727367  0.82446114  0.12873582     0.12500
C803        C  0.42751988  0.89011392  0.15621047     0.62000
F804        F  0.26785757  0.83475277  0.26270238    -0.23200
F805        F  0.25571302  0.77237957  0.24872878    -0.20500
F806        F  0.23895436  0.80649705  0.20432337    -0.20200
F807        F  0.45736395  0.88855478  0.17847058    -0.20200
F808        F  0.43777746  0.93017060  0.15156061    -0.20600
F809        F  0.42627669  0.87421957  0.11873553    -0.23200
C810        C  0.17291530  0.69608053  0.21217253    -0.06100
C811        C  0.18783400  0.68221677  0.18156485    -0.00100
C812        C  0.17383227  0.64012266  0.17861077    -0.08700
C813        C  0.14562024  0.61347051  0.20697479    -0.06100
C814        C  0.13123890  0.62764366  0.23799998    -0.00200
C815        C  0.14535335  0.66985818  0.24077189    -0.08600
C816        C  0.13304072  0.68784196  0.27468802     0.61700
H817        H  0.18354835  0.72820907  0.21376500     0.12400
H818        H  0.13477413  0.58125397  0.20535617     0.12500
C819        C  0.18976855  0.62368762  0.14674266     0.62000
F820        F  0.15589642  0.72981708  0.27536652    -0.23200
F821        F  0.13870504  0.67407879  0.31104557    -0.20500
F822        F  0.09270873  0.67687845  0.27023657    -0.20200
F823        F  0.23164055  0.64277139  0.14958874    -0.20200
F824        F  0.17890654  0.63062763  0.10936840    -0.20600
F825        F  0.17422660  0.58233835  0.15065621    -0.23200
C826        C  0.22071530  0.71383638  0.65632738     0.79900
N827        N  0.25227216  0.74564487  0.67528347    -0.78400
C828        C  0.28133382  0.77759752  0.65470793     0.82400
N829        N  0.27916990  0.77734500  0.61439197    -0.78300
C830        C  0.24803901  0.74590298  0.59472654     0.82500
N831        N  0.21839733  0.71415416  0.61571240    -0.80000
C832        C  0.21272199  0.71933502  0.99091882     0.79900
N833        N  0.21413221  0.71791700  0.53077353    -0.78400
C834        C  0.24629829  0.74759012  0.55105695     0.82400
N835        N  0.27725824  0.77869740  0.53071799    -0.78300
C836        C  0.27642946  0.78006782  0.99050247     0.82500
N837        N  0.24352469  0.75021921  0.97091807    -0.80000
C838        C  0.24491040  0.96772299  0.65073077     0.79900
N839        N  0.24239952  0.96177377  0.61059860    -0.78400
C840        C  0.21084832  0.95996074  0.58949714     0.82400
N841        N  0.18195044  0.96446012  0.60869121    -0.78300
C842        C  0.18413541  0.97079190  0.64872501     0.82500
N843        N  0.21587343  0.97230063  0.66907216    -0.80000
C844        C  0.23384384  0.94429569  0.98563147     0.79900
N845        N  0.23675201  0.94973604  0.52592099    -0.78400
C846        C  0.20823632  0.95422037  0.54591801     0.82400
N847        N  0.17819772  0.95565606  0.52517676    -0.78300
C848        C  0.17590178  0.95158730  0.98480136     0.82500
N849        N  0.20357499  0.94560996  0.96559016    -0.80000
C850        C  0.48751167  0.74104113  0.65087566     0.79900
N851        N  0.48649602  0.70954723  0.67057875    -0.78400
C852        C  0.48627335  0.67832587  0.65079332     0.82400
N853        N  0.48763882  0.67966038  0.61033535    -0.78300
C854        C  0.48933536  0.71137249  0.59003481     0.82500
N855        N  0.48924784  0.74215318  0.61040067    -0.80000
C856        C  0.49779059  0.74464970  0.98484234     0.79900
N857        N  0.49468723  0.74413249  0.52525452    -0.78400
C858        C  0.49190055  0.71228300  0.54629403     0.82400
N859        N  0.49057359  0.68046544  0.52663507    -0.78300
C860        C  0.49315089  0.68067002  0.98640144     0.82500
N861        N  0.49662917  0.71281364  0.96585655    -0.80000
O862        O  0.39196948  0.50753207  0.77882212    -0.88500
C863        C  0.10072603  0.59405470  0.88426371     1.11600
O864        O  0.44216226  0.97362157  0.81989902    -1.36300
O865        O  0.07292829  0.60093284  0.77888352    -0.90000
O866        O  0.36132184  0.93966540  0.77133214    -0.90600
O867        O  0.44623527  0.93656886  0.73282844    -0.79400
O868        O  0.48251187  0.55310847  0.78754676    -1.01500
C869        C  0.06381162  0.98160182  0.74795667     1.21600
O870        O  0.48642451  0.93378089  0.81877600    -1.36400
Mn871      Mn  0.48391475  0.97319764  0.86455573     1.82100
O872        O  0.03225622  0.98117833  0.73561256    -0.78500
O873        O  0.11149926  0.57248007  0.78292105    -0.87900
C874        C  0.05693243  0.97237023  0.89444498     1.12700
C875        C  0.10340052  0.59841059  0.76815504     1.07400
O876        O  0.43948324  0.92809024  0.90276753    -0.79500
O877        O  0.02722376  0.51845875  0.82305531    -1.33200
O878        O  0.40615165  0.89382448  0.85288057    -0.98700
C879        C  0.49052064  0.86051663  0.75954533     1.06100
Mn880      Mn  0.08522352  0.52475357  0.82514952     1.48600
O881        O  0.45584504  0.85326951  0.77147354    -0.87900
Mn882      Mn  0.38570042  0.91884684  0.81590323     1.49600
O883        O  0.39025979  0.50140284  0.86862462    -0.91700
C884        C  0.48357090  0.55122275  0.75152341     1.19300
C885        C  0.36169998  0.96531186  0.87781976     1.11400
Mn886      Mn  0.48701690  0.97768376  0.77643166     1.81000
O887        O  0.06293451  0.97591494  0.85871367    -0.96900
Mn888      Mn  0.43570956  0.52539858  0.82372289     1.49300
C889        C  0.36539104  0.97381286  0.76201490     1.07900
Mn890      Mn  0.04051152  0.93136249  0.82003700     1.49900
C891        C  0.48691184  0.85623143  0.87452683     1.10800
O892        O  0.41016903  0.89820377  0.77901043    -1.02700
O893        O  0.10627538  0.56568345  0.87267434    -0.92400
C894        C  0.41489245  0.90475260  0.74343797     1.22100
O895        O  0.06744731  0.98031158  0.78435128    -1.03100
O896        O  0.07432719  0.60052330  0.86801905    -0.90500
O897        O  0.02070190  0.88515120  0.86244657    -0.90100
O898        O  0.35724315  0.93372825  0.86040710    -0.90100
Mn899      Mn  0.02962326  0.57486640  0.82369244     1.47900
O900        O  0.02525896  0.97122285  0.90622394    -0.78600
C901        C  0.40851087  0.89720522  0.88895604     1.15100
O902        O  0.48657041  0.52217043  0.73776893    -0.77300
O903        O  0.48353096  0.51402801  0.90848959    -0.76900
Mn904      Mn  0.43381165  0.87594821  0.81603752     1.51100
O905        O  0.02333442  0.88930976  0.77380307    -0.89300
O906        O  0.48319373  0.55146958  0.86186544    -0.96800
O907        O  0.45328040  0.85066835  0.86082243    -0.91800
C908        C  0.48411119  0.54590429  0.89802825     1.12900
C909        C  0.50466040  0.62184628  0.98255112    -0.06100
C910        C  0.48913931  0.64486930  0.96474806    -0.00100
C911        C  0.46929008  0.63263327  0.92706888    -0.08700
C912        C  0.46911388  0.60039239  0.90744696    -0.06100
C913        C  0.48479935  0.57743771  0.92460008    -0.00200
C914        C  0.50232103  0.58776204  0.96320268    -0.08600
C915        C  0.51880819  0.56350062  0.98344296     0.61700
H916        H  0.51822674  0.63075138  0.51142572     0.12400
H917        H  0.45515183  0.59203433  0.87818292     0.12500
C918        C  0.44636787  0.65153808  0.90770130     0.62000
F919        F  0.53603198  0.57996693  0.51974117    -0.23200
F920        F  0.04788918  0.56268168  0.95982265    -0.20500
F921        F  0.48748047  0.52424379  0.98955649    -0.20200
F922        F  0.97338577  0.68939823  0.89266170    -0.20200
F923        F  0.42137434  0.65471931  0.93538550    -0.20600
F924        F  0.42181357  0.62826122  0.87626032    -0.23200
C925        C  0.45787335  0.76457362  0.94307070    -0.06100
C926        C  0.49538672  0.77559459  0.96059043    -0.00100
C927        C  0.52986979  0.81290047  0.95072487    -0.08700
C928        C  0.52540814  0.83868679  0.92364507    -0.06100
C929        C  0.48767798  0.82783033  0.90529654    -0.00200
C930        C  0.45313374  0.78962403  0.91538163    -0.08600
C931        C  0.41123930  0.77450073  0.89745848     0.61700
H932        H  0.43221745  0.73531959  0.95086270     0.12400
H933        H  0.05188119  0.86739487  0.91617482     0.12500
C934        C  0.57083591  0.82424352  0.46796252     0.62000
F935        F  0.38313336  0.73593483  0.91035342    -0.23200
F936        F  0.41269990  0.77298314  0.85625735    -0.20500
F937        F  0.39763343  0.80019201  0.90901459    -0.20200
F938        F  0.08039330  0.79481470  0.45836522    -0.20200
F939        F  0.57010636  0.82735563  0.50904428    -0.20600
F940        F  0.10116011  0.86092003  0.45328098    -0.23200
C941        C  0.98652626  0.58123718  0.68436495    -0.06100
C942        C  0.48358664  0.58356349  0.72601175    -0.00100
C943        C  0.48138310  0.61702781  0.74219597    -0.08700
C944        C  0.48147843  0.64569629  0.71597693    -0.06100
C945        C  0.48495123  0.64400004  0.67435415    -0.00200
C946        C  0.98762638  0.61084403  0.65808233    -0.08600
C947        C  0.99191367  0.60610468  0.61357454     0.61700
H948        H  0.98831517  0.55586849  0.67241561     0.12400
H949        H  0.47915720  0.67047750  0.72851249     0.12500
C950        C  0.47936246  0.62385957  0.78688467     0.62000
F951        F  0.99480754  0.57216432  0.60510216    -0.23200
F952        F  0.02679916  0.63953133  0.59959454    -0.20500
F953        F  0.95830153  0.60194370  0.59324046    -0.20200
F954        F  0.51374121  0.62861644  0.80601181    -0.20200
F955        F  0.44513837  0.59149442  0.80294371    -0.20600
F956        F  0.47726832  0.65832757  0.79495762    -0.23200
C957        C  0.02381623  0.79781021  0.69784267    -0.06100
C958        C  0.48919298  0.77464202  0.67426918    -0.00100
C959        C  0.45569685  0.78066037  0.67732610    -0.08700
C960        C  0.45809418  0.81017463  0.70423079    -0.06100
C961        C  0.49255376  0.83322195  0.72869168    -0.00200
C962        C  0.02628083  0.82684189  0.72534767    -0.08600
C963        C  0.06415497  0.84868046  0.75161557     0.61700
H964        H  0.04869872  0.79196716  0.69517481     0.12400
H965        H  0.43236136  0.81463868  0.70707317     0.12500
C966        C  0.41695693  0.75456656  0.65364248     0.62000
F967        F  0.09064441  0.83439079  0.74571085    -0.23200
F968        F  0.05345971  0.84298907  0.79148915    -0.20500
F969        F  0.08486185  0.88961469  0.74285422    -0.20200
F970        F  0.40201084  0.71410789  0.66258656    -0.20200
F971        F  0.42495532  0.76045376  0.61324618    -0.20600
F972        F  0.38712722  0.76386579  0.66228473    -0.23200
C973        C  0.30683600  0.47732605  0.96904444    -0.06100
C974        C  0.26718230  0.94509309  0.96236195    -0.00100
C975        C  0.26003195  0.91685680  0.93151743    -0.08700
C976        C  0.29206747  0.92428560  0.90572293    -0.06100
C977        C  0.33092160  0.95921302  0.90916375    -0.00200
C978        C  0.33889059  0.48517206  0.94306462    -0.08600
C979        C  0.38020182  0.52143192  0.95131417     0.61700
H980        H  0.31193359  0.49789276  0.99358243     0.12400
H981        H  0.28622083  0.90331988  0.88139337     0.12500
C982        C  0.21879851  0.87883557  0.92587396     0.62000
F983        F  0.38257045  0.53887371  0.98823789    -0.23200
F984        F  0.38799479  0.55016398  0.92247528    -0.20500
F985        F  0.40901906  0.50969664  0.95069424    -0.20200
F986        F  0.19114196  0.88882994  0.91089298    -0.20200
F987        F  0.20514496  0.85932008  0.96207082    -0.20600
F988        F  0.22054500  0.85186535  0.89948743    -0.23200
C989        C  0.12481945  0.98121249  0.90431276    -0.06100
C990        C  0.08619058  0.96771664  0.92057513    -0.00100
C991        C  0.07732984  0.94937366  0.95886271    -0.08700
C992        C  0.10739197  0.94438932  0.97866746    -0.06100
C993        C  0.14574873  0.95742844  0.96176141    -0.00200
C994        C  0.15504403  0.97736736  0.92424738    -0.08600
C995        C  0.19683623  0.99599074  0.90517129     0.60500
H996        H  0.13169070  0.99585217  0.87549333     0.12400
H997        H  0.10122646  0.93042137  0.50773506     0.12500
C998        C  0.03663488  0.93476940  0.97872069     0.62000
F999        F  0.20079545  0.02073827  0.87325007    -0.23200
F1000       F  0.20319698  0.96568945  0.89095065    -0.20500
F1001       F  0.22659937  0.52034253  0.93260631    -0.20200
F1002       F  0.00559780  0.90673875  0.95452091    -0.20200
F1003       F  0.03155593  0.46794591  0.98552638    -0.20600
F1004       F  0.03452113  0.91732234  0.51551049    -0.23200
C1005       C  0.29260969  0.99875428  0.70727196    -0.06100
C1006       C  0.27931577  0.97109104  0.67529886    -0.00100
C1007       C  0.29640519  0.94580119  0.67054435    -0.08700
C1008       C  0.32515925  0.94835904  0.69899781    -0.06100
C1009       C  0.33751246  0.97533369  0.73158140    -0.00200
C1010       C  0.32108505  0.00131918  0.73568766    -0.08600
C1011       C  0.33198387  0.03075121  0.77053703     0.61700
H1012       H  0.27984710  0.01832738  0.71017524     0.12400
H1013       H  0.33817747  0.92901673  0.69613353     0.12500
C1014       C  0.28378685  0.91546409  0.63650156     0.62000
F1015       F  0.30803209  0.04847324  0.77133663    -0.23200
F1016       F  0.37187110  0.06159966  0.76730529    -0.20500
F1017       F  0.32790237  0.51307636  0.80596508    -0.20200
F1018       F  0.29623070  0.93592892  0.60063630    -0.20200
F1019       F  0.24204168  0.89038253  0.63603002    -0.20600
F1020       F  0.30100567  0.89118944  0.64009204    -0.23200
C1021       C  0.09037831  0.97841192  0.68056745    -0.06100
C1022       C  0.09599443  0.98198901  0.72214151    -0.00100
C1023       C  0.13200670  0.98441456  0.73864843    -0.08700
C1024       C  0.15876659  0.98077847  0.71297980    -0.06100
C1025       C  0.15281662  0.97574037  0.67150483    -0.00200
C1026       C  0.11826446  0.97582124  0.65471867    -0.08600
C1027       C  0.11041349  0.97357646  0.61005044     0.61700
H1028       H  0.06326167  0.97715109  0.66832486     0.12400
H1029       H  0.18518239  0.98137702  0.72602276     0.12500
C1030       C  0.14329669  0.99032580  0.78315680     0.62000
F1031       F  0.07669779  0.97676503  0.60073289    -0.23200
F1032       F  0.10357414  0.93683034  0.59526585    -0.20500
F1033       F  0.14344028  0.00517751  0.59132852    -0.20200
F1034       F  0.11558668  0.95687434  0.80460699    -0.20200
F1035       F  0.14420015  0.52343333  0.79771879    -0.20600
F1036       F  0.18117907  0.99500929  0.79076348    -0.23200
C1037       C  0.31209488  0.80261300  0.92595413    -0.06100
C1038       C  0.31134849  0.81168758  0.96649525    -0.00100
C1039       C  0.34267548  0.84986434  0.98131199    -0.08700
C1040       C  0.37409798  0.87617707  0.95523985    -0.06100
C1041       C  0.37453143  0.86688351  0.91462153    -0.00200
C1042       C  0.34178894  0.82954137  0.89941057    -0.08600
C1043       C  0.33657740  0.81740970  0.85535580     0.61700
H1044       H  0.28840363  0.77372392  0.91458540     0.12400
H1045       H  0.39846412  0.90487405  0.96642513     0.12500
C1046       C  0.34181214  0.86474389  0.52335675     0.62000
F1047       F  0.30351995  0.77906538  0.84846365    -0.23200
F1048       F  0.37032139  0.81699066  0.84143692    -0.20500
F1049       F  0.33030329  0.84442625  0.83346819    -0.20200
F1050       F  0.34888235  0.84146205  0.55021786    -0.20200
F1051       F  0.30472952  0.86156156  0.53110365    -0.20600
F1052       F  0.37161545  0.90486470  0.52932821    -0.23200
C1053       C  0.18605958  0.65232251  0.96094638    -0.06100
C1054       C  0.18071695  0.68522734  0.96840807    -0.00100
C1055       C  0.14651185  0.68567050  0.95310165    -0.08700
C1056       C  0.12019480  0.65430778  0.92721706    -0.06100
C1057       C  0.12689498  0.62234664  0.91672501    -0.00200
C1058       C  0.15919901  0.62010392  0.93615561    -0.08600
C1059       C  0.16482160  0.58367132  0.93282501     0.61700
H1060       H  0.21210332  0.65251501  0.97436854     0.12400
H1061       H  0.09473966  0.65543639  0.91416909     0.12500
C1062       C  0.13844095  0.71952672  0.96375062     0.62000
F1063       F  0.19476750  0.58627119  0.95840895    -0.23200
F1064       F  0.17563929  0.57999400  0.89441004    -0.20500
F1065       F  0.12890220  0.54960634  0.94329447    -0.20200
F1066       F  0.16862926  0.75569347  0.94808696    -0.20200
F1067       F  0.13854964  0.72554291  0.50200830    -0.20600
F1068       F  0.10133224  0.71225790  0.94896943    -0.23200
C1069       C  0.34249239  0.85736637  0.73291027    -0.06100
C1070       C  0.38149829  0.87696908  0.71626064    -0.00100
C1071       C  0.38666958  0.86701902  0.67695895    -0.08700
C1072       C  0.35304103  0.83436885  0.65759136    -0.06100
C1073       C  0.31462089  0.81293720  0.67585685    -0.00200
C1074       C  0.30873812  0.82639684  0.71326383    -0.08600
C1075       C  0.26739846  0.80899185  0.73293172     0.61700
H1076       H  0.33850916  0.86598027  0.76244738     0.12400
H1077       H  0.35677074  0.82482054  0.62829355     0.12500
C1078       C  0.42710099  0.89025576  0.65586402     0.62000
F1079       F  0.26805472  0.83329408  0.76396288    -0.23200
F1080       F  0.25571723  0.77116804  0.74855441    -0.20500
F1081       F  0.23885863  0.80614470  0.70535577    -0.20200
F1082       F  0.45704842  0.88847283  0.67771646    -0.20200
F1083       F  0.43733605  0.93035399  0.65169991    -0.20600
F1084       F  0.42565727  0.87471739  0.61815502    -0.23200
C1085       C  0.17208248  0.69601371  0.71128538    -0.06100
C1086       C  0.18750296  0.68221137  0.68111444    -0.00100
C1087       C  0.17422269  0.64025552  0.67874145    -0.08700
C1088       C  0.14613411  0.61363666  0.70720622    -0.06100
C1089       C  0.13122330  0.62773418  0.73782456    -0.00200
C1090       C  0.14463360  0.66984884  0.73999482    -0.08600
C1091       C  0.13168207  0.68785012  0.77335555     0.61700
H1092       H  0.18229735  0.72807275  0.71247999     0.12400
H1093       H  0.13583726  0.58152106  0.70600498     0.12500
C1094       C  0.19087002  0.62400634  0.64741347     0.62000
F1095       F  0.15401241  0.72985174  0.77359456    -0.23200
F1096       F  0.13736771  0.67472101  0.81007233    -0.20500
F1097       F  0.09123392  0.67626350  0.76843060    -0.20200
F1098       F  0.23274513  0.64364738  0.65068944    -0.20200
F1099       F  0.18019186  0.63048073  0.60975403    -0.20600
F1100       F  0.17583998  0.58277800  0.65170093    -0.23200
C1101       C  0.72025858  0.21458712  0.15616496     0.79900
N1102       N  0.75185628  0.24642658  0.17505459    -0.78400
C1103       C  0.78079940  0.27841777  0.15441732     0.82400
N1104       N  0.77848548  0.27817656  0.11411713    -0.78300
C1105       C  0.74731695  0.24670964  0.09452145     0.82500
N1106       N  0.71779779  0.21491431  0.11556008    -0.80000
C1107       C  0.71125015  0.22078805  0.49054628     0.79900
N1108       N  0.71338631  0.21858522  0.03060583    -0.78400
C1109       C  0.74550088  0.24835651  0.05086287     0.82400
N1110       N  0.77645333  0.27943577  0.03049320    -0.78300
C1111       C  0.77477426  0.28171023  0.49014124     0.82500
N1112       N  0.74198950  0.25172574  0.47055742    -0.80000
C1113       C  0.74466629  0.46754720  0.15070291     0.79900
N1114       N  0.74217220  0.46162303  0.11057936    -0.78400
C1115       C  0.71048703  0.45951929  0.08950015     0.82400
N1116       N  0.68139147  0.46369333  0.10872052    -0.78300
C1117       C  0.68356701  0.47001813  0.14876906     0.82500
N1118       N  0.71546681  0.47183095  0.16907611    -0.80000
C1119       C  0.73372254  0.44471420  0.48557472     0.79900
N1120       N  0.73658266  0.44939541  0.02599168    -0.78400
C1121       C  0.70803750  0.45391359  0.04590642     0.82400
N1122       N  0.67811819  0.45547152  0.02508034    -0.78300
C1123       C  0.67577352  0.45198425  0.48493727     0.82500
N1124       N  0.70341299  0.44603638  0.46564575    -0.80000
C1125       C  0.98732974  0.24098775  0.15086885     0.79900
N1126       N  0.98667716  0.20964909  0.17054039    -0.78400
C1127       C  0.98666997  0.17855131  0.15072277     0.82400
N1128       N  0.98788860  0.17984724  0.11026974    -0.78300
C1129       C  0.98925148  0.21140506  0.08998925     0.82500
N1130       N  0.98894803  0.24207202  0.11037991    -0.80000
C1131       C  0.99696439  0.24457900  0.48501071     0.79900
N1132       N  0.99439698  0.24406972  0.02521448    -0.78400
C1133       C  0.99174186  0.21227976  0.04624316     0.82400
N1134       N  0.99056308  0.18052865  0.02657312    -0.78300
C1135       C  0.99245611  0.18065978  0.48621023     0.82500
N1136       N  0.99601296  0.21293143  0.46585714    -0.80000
O1137       O  0.89187959  0.00720562  0.27840476    -0.88500
C1138       C  0.60058299  0.09464380  0.38382343     1.11600
O1139       O  0.94196552  0.47377609  0.31983685    -1.36300
O1140       O  0.57271579  0.10096516  0.27844019    -0.90000
O1141       O  0.86130637  0.44011106  0.27111467    -0.90600
O1142       O  0.94602098  0.43678856  0.23276399    -0.79400
O1143       O  0.98240620  0.05292748  0.28715871    -1.01500
C1144       C  0.56343710  0.48124838  0.24805575     1.21600
O1145       O  0.98594747  0.43366437  0.31874751    -1.36400
Mn1146     Mn  0.98355171  0.47311547  0.36454442     1.82100
O1147       O  0.53200868  0.48104368  0.23566355    -0.78500
O1148       O  0.61151155  0.07276920  0.28275162    -0.87900
C1149       C  0.55636190  0.47198768  0.39454060     1.12700
C1150       C  0.60330600  0.09858207  0.26787671     1.07400
O1151       O  0.93893778  0.42813037  0.40264173    -0.79500
O1152       O  0.52723751  0.01864283  0.32290232    -1.33200
O1153       O  0.90560306  0.39391437  0.35271544    -0.98700
C1154       C  0.98991076  0.36031136  0.25953787     1.06100
Mn1155     Mn  0.58532141  0.02512625  0.32509943     1.48600
O1156       O  0.95522445  0.35313185  0.27136847    -0.87900
Mn1157     Mn  0.88540315  0.41909948  0.31570276     1.49600
O1158       O  0.89014365  0.00144736  0.36807001    -0.91700
C1159       C  0.98355677  0.05108782  0.25116188     1.19300
C1160       C  0.86145520  0.46562354  0.37760108     1.11400
Mn1161     Mn  0.98681970  0.47772791  0.27644431     1.81000
O1162       O  0.56236650  0.47554914  0.35881944    -0.96900
Mn1163     Mn  0.93561371  0.02532369  0.32328977     1.49300
C1164       C  0.86547960  0.47429383  0.26181751     1.07900
Mn1165     Mn  0.53991235  0.43106462  0.32010108     1.49900
C1166       C  0.98608046  0.35601875  0.37458674     1.10800
O1167       O  0.90980556  0.39836519  0.27884613    -1.02700
O1168       O  0.60621813  0.06623962  0.37251305    -0.92400
C1169       C  0.91459865  0.40500879  0.24328908     1.22100
O1170       O  0.56703091  0.48001026  0.28446643    -1.03100
O1171       O  0.57411925  0.10090422  0.36743819    -0.90500
O1172       O  0.51990258  0.38488211  0.36249083    -0.90100
O1173       O  0.85691731  0.43403709  0.36012853    -0.90100
Mn1174     Mn  0.52943696  0.07494821  0.32325000     1.47900
O1175       O  0.52471550  0.47089390  0.40631060    -0.78600
C1176       C  0.90787746  0.39737752  0.38878700     1.15100
O1177       O  0.98659158  0.02203704  0.23746433    -0.77300
O1178       O  0.98350956  0.01440291  0.40822445    -0.76900
Mn1179     Mn  0.93323036  0.37591193  0.31591707     1.51100
O1180       O  0.52271246  0.38905048  0.27384926    -0.89300
O1181       O  0.98306658  0.05165081  0.36144852    -0.96800
O1182       O  0.95248817  0.35045272  0.36075921    -0.91800
C1183       C  0.98404138  0.04622649  0.39763271     1.12900
C1184       C  0.00408531  0.12194741  0.48225193    -0.06100
C1185       C  0.98874650  0.14508391  0.46435434    -0.00100
C1186       C  0.96937927  0.13316283  0.42641755    -0.08700
C1187       C  0.96924026  0.10091322  0.40683471    -0.06100
C1188       C  0.98478560  0.07787342  0.42409230    -0.00200
C1189       C  0.00198470  0.08801722  0.46282753    -0.08600
C1190       C  0.01835859  0.06369960  0.48314886     0.61700
H1191       H  0.01800414  0.13065630  0.01149267     0.12400
H1192       H  0.95555205  0.09270821  0.37745246     0.12500
C1193       C  0.94705498  0.15251126  0.40664525     0.62000
F1194       F  0.03564238  0.07976439  0.01992720    -0.23200
F1195       F  0.54764311  0.06303973  0.45967329    -0.20500
F1196       F  0.98701227  0.02439753  0.48900817    -0.20200
F1197       F  0.47456604  0.19052163  0.39224567    -0.20200
F1198       F  0.92155429  0.15550537  0.43382719    -0.20600
F1199       F  0.92313320  0.12975032  0.37465462    -0.23200
C1200       C  0.95686817  0.26511135  0.44433379    -0.06100
C1201       C  0.99462174  0.27563515  0.46092482    -0.00100
C1202       C  0.02927638  0.31244687  0.45021598    -0.08700
C1203       C  0.02479171  0.33818374  0.42311163    -0.06100
C1204       C  0.98684603  0.32774371  0.40552748    -0.00200
C1205       C  0.95207653  0.29012339  0.41663511    -0.08600
C1206       C  0.90988770  0.27561083  0.39983084     0.61700
H1207       H  0.93106172  0.23622104  0.45278710     0.12400
H1208       H  0.55143283  0.36655014  0.41504012     0.12500
C1209       C  0.07081220  0.32354284  0.96676802     0.62000
F1210       F  0.88140127  0.23776974  0.41403778    -0.23200
F1211       F  0.91004097  0.27276517  0.35865250    -0.20500
F1212       F  0.89773059  0.30252485  0.41112953    -0.20200
F1213       F  0.57992218  0.29396516  0.95654608    -0.20200
F1214       F  0.07063595  0.32643147  0.00791372    -0.20600
F1215       F  0.60109203  0.36022393  0.95210900    -0.23200
C1216       C  0.48719217  0.08154282  0.18408811    -0.06100
C1217       C  0.98382848  0.08358892  0.22570771    -0.00100
C1218       C  0.98156579  0.11700613  0.24195742    -0.08700
C1219       C  0.98184386  0.14580880  0.21581608    -0.06100
C1220       C  0.98553890  0.14429228  0.17421914    -0.00200
C1221       C  0.48852736  0.11132473  0.15789838    -0.08600
C1222       C  0.49349737  0.10703645  0.11344754     0.61700
H1223       H  0.48914482  0.05627896  0.17209992     0.12400
H1224       H  0.97941971  0.17051701  0.22838828     0.12500
C1225       C  0.97920614  0.12361433  0.28663528     0.62000
F1226       F  0.49704655  0.07347308  0.10497562    -0.23200
F1227       F  0.52832573  0.14084702  0.09993610    -0.20500
F1228       F  0.45996145  0.10255707  0.09270681    -0.20200
F1229       F  0.01342122  0.12824386  0.30600595    -0.20200
F1230       F  0.94481981  0.09118090  0.30237328    -0.20600
F1231       F  0.97710078  0.15806636  0.29476470    -0.23200
C1232       C  0.52315408  0.29725639  0.19841452    -0.06100
C1233       C  0.98888180  0.27451668  0.17432671    -0.00100
C1234       C  0.95551800  0.28080593  0.17698916    -0.08700
C1235       C  0.95782970  0.31031054  0.20387495    -0.06100
C1236       C  0.99201275  0.33299660  0.22876389    -0.00200
C1237       C  0.52547807  0.32618078  0.22596846    -0.08600
C1238       C  0.56293068  0.34745774  0.25286014     0.61700
H1239       H  0.54791659  0.29119402  0.19608433     0.12400
H1240       H  0.93223405  0.31503713  0.20638316     0.12500
C1241       C  0.91694762  0.25494562  0.15299069     0.62000
F1242       F  0.58903435  0.33259897  0.24759989    -0.23200
F1243       F  0.55153997  0.34177848  0.29254358    -0.20500
F1244       F  0.58431249  0.38840916  0.24424172    -0.20200
F1245       F  0.90174683  0.21442698  0.16184630    -0.20200
F1246       F  0.92528655  0.26094669  0.11266265    -0.20600
F1247       F  0.88717729  0.26440123  0.16137756    -0.23200
C1248       C  0.80651354  0.97907972  0.46768046    -0.06100
C1249       C  0.76693329  0.44539524  0.46216385    -0.00100
C1250       C  0.75955249  0.41753986  0.43084215    -0.08700
C1251       C  0.79157594  0.42496566  0.40502702    -0.06100
C1252       C  0.83062988  0.45952891  0.40888922    -0.00200
C1253       C  0.83845136  0.98696730  0.44154114    -0.08600
C1254       C  0.87921774  0.02445010  0.44849767     0.61700
H1255       H  0.81125945  0.00034977  0.49140950     0.12400
H1256       H  0.78559136  0.40431511  0.38036209     0.12500
C1257       C  0.71810526  0.37989433  0.42471312     0.62000
F1258       F  0.88112744  0.04376254  0.48413895    -0.23200
F1259       F  0.88626975  0.05136360  0.41791258    -0.20500
F1260       F  0.90877833  0.01374009  0.44975815    -0.20200
F1261       F  0.69088895  0.39049251  0.40976851    -0.20200
F1262       F  0.70397842  0.35999331  0.46066213    -0.20600
F1263       F  0.71966452  0.35302991  0.39804550    -0.23200
C1264       C  0.62430235  0.48103052  0.40438203    -0.06100
C1265       C  0.58565575  0.46738701  0.42065121    -0.00100
C1266       C  0.57690724  0.44917019  0.45899384    -0.08700
C1267       C  0.60709206  0.44439977  0.47882783    -0.06100
C1268       C  0.64549701  0.45765286  0.46193693    -0.00200
C1269       C  0.65468591  0.47752907  0.42438695    -0.08600
C1270       C  0.69654966  0.49654860  0.40538558     0.60500
H1271       H  0.63107471  0.49554228  0.37550282     0.12400
H1272       H  0.60131422  0.43021542  0.00763731     0.12500
C1273       C  0.53622932  0.43453627  0.47889165     0.62000
F1274       F  0.70028296  0.52114271  0.37339637    -0.23200
F1275       F  0.70340319  0.46655595  0.39124257    -0.20500
F1276       F  0.72676592  0.02034895  0.43273129    -0.20200
F1277       F  0.50519240  0.40640132  0.45476448    -0.20200
F1278       F  0.53138925  0.96810057  0.48565437    -0.20600
F1279       F  0.53468204  0.41723286  0.01560255    -0.23200
C1280       C  0.79217523  0.49862894  0.20738208    -0.06100
C1281       C  0.77922295  0.47120194  0.17521261    -0.00100
C1282       C  0.79689390  0.44646109  0.17012279    -0.08700
C1283       C  0.82569914  0.44914383  0.19856766    -0.06100
C1284       C  0.83766773  0.47583255  0.23135514    -0.00200
C1285       C  0.82084337  0.50143642  0.23568400    -0.08600
C1286       C  0.83158373  0.53072901  0.27062933     0.61700
H1287       H  0.77903109  0.51784759  0.21050740     0.12400
H1288       H  0.83908541  0.43014089  0.19552969     0.12500
C1289       C  0.78492615  0.41662893  0.13568944     0.62000
F1290       F  0.80742759  0.54822029  0.27155552    -0.23200
F1291       F  0.87140265  0.56175151  0.26742787    -0.20500
F1292       F  0.82598938  0.01014446  0.30664155    -0.20200
F1293       F  0.79730261  0.43761722  0.10009095    -0.20200
F1294       F  0.74326937  0.39098073  0.13492374    -0.20600
F1295       F  0.80277192  0.39289141  0.13891881    -0.23200
C1296       C  0.59019319  0.47833925  0.18065026    -0.06100
C1297       C  0.59545604  0.48123989  0.22228004    -0.00100
C1298       C  0.63099344  0.48271409  0.23886812    -0.08700
C1299       C  0.65757006  0.47876133  0.21320603    -0.06100
C1300       C  0.65211615  0.47469877  0.17162452    -0.00200
C1301       C  0.61805657  0.47569843  0.15479953    -0.08600
C1302       C  0.61075015  0.47443643  0.11009017     0.61700
H1303       H  0.56343824  0.47778940  0.16834590     0.12400
H1304       H  0.68349442  0.47843703  0.22632737     0.12500
C1305       C  0.64203044  0.48809870  0.28344009     0.62000
F1306       F  0.57758783  0.47857296  0.10076982    -0.23200
F1307       F  0.60335078  0.43771811  0.09467134    -0.20500
F1308       F  0.64430933  0.50599460  0.09197041    -0.20200
F1309       F  0.61375405  0.45476883  0.30464418    -0.20200
F1310       F  0.64459734  0.02435443  0.29724473    -0.20600
F1311       F  0.67951990  0.49188504  0.29116849    -0.23200
C1312       C  0.81091073  0.30349391  0.42580251    -0.06100
C1313       C  0.80980874  0.31308130  0.46611389    -0.00100
C1314       C  0.84096642  0.35143975  0.48070375    -0.08700
C1315       C  0.87271905  0.37734559  0.45474117    -0.06100
C1316       C  0.87357691  0.36748174  0.41438058    -0.00200
C1317       C  0.84089771  0.33004171  0.39929647    -0.08600
C1318       C  0.83608934  0.31740144  0.35541317     0.61700
H1319       H  0.78729263  0.27449032  0.41458465     0.12400
H1320       H  0.89699387  0.40616926  0.46578543     0.12500
C1321       C  0.84049770  0.36576339  0.02268335     0.62000
F1322       F  0.80316324  0.27893364  0.34870577    -0.23200
F1323       F  0.86999903  0.31694085  0.34212335    -0.20500
F1324       F  0.82991663  0.34410269  0.33286011    -0.20200
F1325       F  0.84758195  0.34291831  0.05008864    -0.20200
F1326       F  0.80323360  0.36237735  0.02988529    -0.20600
F1327       F  0.87005788  0.40602152  0.02837880    -0.23200
C1328       C  0.68587753  0.15411394  0.46022506    -0.06100
C1329       C  0.67963757  0.18641950  0.46798509    -0.00100
C1330       C  0.64510373  0.18620095  0.45267280    -0.08700
C1331       C  0.61914652  0.15463561  0.42680704    -0.06100
C1332       C  0.62662091  0.12320764  0.41616033    -0.00200
C1333       C  0.65950891  0.12178538  0.43526595    -0.08600
C1334       C  0.66637857  0.08616154  0.43127981     0.61700
H1335       H  0.71226564  0.15490623  0.47351856     0.12400
H1336       H  0.59331944  0.15517263  0.41391466     0.12500
C1337       C  0.63631020  0.21958563  0.46328927     0.62000
F1338       F  0.69709799  0.08962229  0.45625932    -0.23200
F1339       F  0.67692290  0.08303322  0.39257765    -0.20500
F1340       F  0.63117328  0.05142791  0.44199226    -0.20200
F1341       F  0.66636371  0.25606647  0.44803429    -0.20200
F1342       F  0.63623698  0.22323699  0.00378514    -0.20600
F1343       F  0.59922197  0.21194489  0.44807543    -0.23200
C1344       C  0.84213564  0.35795823  0.23267723    -0.06100
C1345       C  0.88114479  0.37746683  0.21603968    -0.00100
C1346       C  0.88622924  0.36770612  0.17662954    -0.08700
C1347       C  0.85253739  0.33517804  0.15719741    -0.06100
C1348       C  0.81413373  0.31376202  0.17549828    -0.00200
C1349       C  0.80831546  0.32719764  0.21293519    -0.08600
C1350       C  0.76699152  0.30991491  0.23258742     0.61700
H1351       H  0.83818535  0.36646253  0.26227617     0.12400
H1352       H  0.85620704  0.32570196  0.12783844     0.12500
C1353       C  0.92662531  0.39102356  0.15549258     0.62000
F1354       F  0.76767913  0.33443268  0.26341629    -0.23200
F1355       F  0.75536013  0.27219962  0.24846089    -0.20500
F1356       F  0.73841217  0.30687275  0.20495309    -0.20200
F1357       F  0.95656817  0.38900313  0.17711418    -0.20200
F1358       F  0.93693535  0.43117689  0.15167924    -0.20600
F1359       F  0.92506892  0.37574626  0.11762738    -0.23200
C1360       C  0.67220659  0.19651944  0.21171075    -0.06100
C1361       C  0.68721424  0.18284071  0.18102928    -0.00100
C1362       C  0.67367887  0.14084462  0.17817801    -0.08700
C1363       C  0.64571388  0.11406412  0.20664155    -0.06100
C1364       C  0.63118238  0.12804654  0.23770210    -0.00200
C1365       C  0.64493843  0.17019554  0.24043695    -0.08600
C1366       C  0.63256160  0.18803218  0.27443878     0.61700
H1367       H  0.68256905  0.22859462  0.21327952     0.12400
H1368       H  0.63517264  0.08190953  0.20505747     0.12500
C1369       C  0.68987120  0.12468836  0.14629463     0.62000
F1370       F  0.65530709  0.23001177  0.27519171    -0.23200
F1371       F  0.63831828  0.17425766  0.31074901    -0.20500
F1372       F  0.59219434  0.17694798  0.27003893    -0.20200
F1373       F  0.73178280  0.14429251  0.14897734    -0.20200
F1374       F  0.67867008  0.13129812  0.10894519    -0.20600
F1375       F  0.67488093  0.08344081  0.15033230    -0.23200
C1376       C  0.72005791  0.21491800  0.65633181     0.79900
N1377       N  0.75159535  0.24680638  0.67523777    -0.78400
C1378       C  0.78045918  0.27887724  0.65461641     0.82400
N1379       N  0.77810441  0.27867311  0.61431334    -0.78300
C1380       C  0.74698067  0.24716986  0.59470530     0.82500
N1381       N  0.71755885  0.21528921  0.61573289    -0.80000
C1382       C  0.71161021  0.22041518  0.99035612     0.79900
N1383       N  0.71303433  0.21899677  0.53079974    -0.78400
C1384       C  0.74513171  0.24881593  0.55104111     0.82400
N1385       N  0.77606955  0.27988909  0.53064580    -0.78300
C1386       C  0.77515836  0.28130915  0.98999578     0.82500
N1387       N  0.74236558  0.25136160  0.97038111    -0.80000
C1388       C  0.74517228  0.46830021  0.65075241     0.79900
N1389       N  0.74253626  0.46218527  0.61063417    -0.78400
C1390       C  0.71074727  0.45995329  0.58961016     0.82400
N1391       N  0.68170289  0.46414870  0.60887706    -0.78300
C1392       C  0.68400796  0.47065819  0.64888504     0.82500
N1393       N  0.71600890  0.47263220  0.66915429    -0.80000
C1394       C  0.73403749  0.44470165  0.98556531     0.79900
N1395       N  0.73651836  0.44961324  0.52597947    -0.78400
C1396       C  0.70805063  0.45415004  0.54602193     0.82400
N1397       N  0.67797543  0.45557386  0.52531835    -0.78300
C1398       C  0.67614762  0.45207323  0.98469118     0.82500
N1399       N  0.70388064  0.44619132  0.96549575    -0.80000
C1400       C  0.98723064  0.24088517  0.65102794     0.79900
N1401       N  0.98648069  0.20948984  0.67069389    -0.78400
C1402       C  0.98644476  0.17838024  0.65085563     0.82400
N1403       N  0.98774616  0.17973741  0.61039743    -0.78300
C1404       C  0.98920550  0.21135814  0.59014276     0.82500
N1405       N  0.98892523  0.24201643  0.61055276    -0.80000
C1406       C  0.99695027  0.24438370  0.98476743     0.79900
N1407       N  0.99436069  0.24415399  0.52545499    -0.78400
C1408       C  0.99176193  0.21234194  0.54640289     0.82400
N1409       N  0.99067464  0.18067726  0.52665275    -0.78300
C1410       C  0.99228744  0.18039094  0.98613125     0.82500
N1411       N  0.99588393  0.21263837  0.96568825    -0.80000
O1412       O  0.89162044  0.00661411  0.77843942    -0.88500
C1413       C  0.60045413  0.09440456  0.88381392     1.11600
O1414       O  0.94225354  0.47400497  0.82002203    -1.36300
O1415       O  0.57248166  0.10082296  0.77848236    -0.90000
O1416       O  0.86165570  0.44063311  0.77128832    -0.90600
O1417       O  0.94610435  0.43704122  0.73281937    -0.79400
O1418       O  0.98213089  0.05260348  0.78722391    -1.01500
C1419       C  0.56357032  0.48141507  0.74803269     1.21600
O1420       O  0.98614536  0.43379800  0.81875127    -1.36400
Mn1421     Mn  0.98383620  0.47320893  0.86465002     1.82100
O1422       O  0.53214465  0.48122712  0.73565434    -0.78500
O1423       O  0.61136705  0.07273131  0.78268535    -0.87900
C1424       C  0.55665516  0.47203665  0.89445919     1.12700
C1425       C  0.60311001  0.09853157  0.76786804     1.07400
O1426       O  0.93920436  0.42816190  0.90271949    -0.79500
O1427       O  0.52714219  0.01842794  0.82286308    -1.33200
O1428       O  0.90583375  0.39409121  0.85273983    -0.98700
C1429       C  0.99001787  0.36046454  0.75943938     1.06100
Mn1430     Mn  0.58528329  0.02501325  0.82500219     1.48600
O1431       O  0.95533920  0.35331443  0.77126607    -0.87900
Mn1432     Mn  0.88567798  0.41940471  0.81581473     1.49600
O1433       O  0.88983634  0.00078939  0.86815686    -0.91700
C1434       C  0.98327766  0.05079501  0.75121901     1.19300
C1435       C  0.86198949  0.46587176  0.87800732     1.11400
Mn1436     Mn  0.98700931  0.47791579  0.77653614     1.81000
O1437       O  0.56258877  0.47561218  0.85873510    -0.96900
Mn1438     Mn  0.93533285  0.02483158  0.82335387     1.49300
C1439       C  0.86580849  0.47485661  0.76214887     1.07900
Mn1440     Mn  0.54006685  0.43113793  0.82004158     1.49900
C1441       C  0.98628239  0.35610525  0.87450489     1.10800
O1442       O  0.90995173  0.39860717  0.77889892    -1.02700
O1443       O  0.60614851  0.06606842  0.87241867    -0.92400
C1444       C  0.91465954  0.40527825  0.74334932     1.22100
O1445       O  0.56711843  0.48009158  0.78442655    -1.03100
O1446       O  0.57392463  0.10062762  0.86751104    -0.90500
O1447       O  0.52009380  0.38494438  0.86243973    -0.90100
O1448       O  0.85737600  0.43436998  0.86031045    -0.90100
Mn1449     Mn  0.52921973  0.07468135  0.82330661     1.47900
O1450       O  0.52500923  0.47089614  0.90630567    -0.78600
C1451       C  0.90812286  0.39745329  0.88881869     1.15100
O1452       O  0.98635935  0.02178081  0.73748372    -0.77300
O1453       O  0.98339941  0.01405200  0.90824542    -0.76900
Mn1454     Mn  0.93340423  0.37608635  0.81588588     1.51100
O1455       O  0.52281870  0.38914879  0.77379496    -0.89300
O1456       O  0.98278967  0.05125443  0.86151319    -0.96800
O1457       O  0.95270158  0.35058903  0.86068514    -0.91800
C1458       C  0.98380115  0.04582571  0.89769132     1.12900
C1459       C  0.00390666  0.12164719  0.98225660    -0.06100
C1460       C  0.98848196  0.14471681  0.96437286    -0.00100
C1461       C  0.96894660  0.13264780  0.92652880    -0.08700
C1462       C  0.96882148  0.10039780  0.90695119    -0.06100
C1463       C  0.98447370  0.07743509  0.92417707    -0.00200
C1464       C  0.00176819  0.08767330  0.96287280    -0.08600
C1465       C  0.01820527  0.06341057  0.98319087     0.61700
H1466       H  0.01808111  0.13086586  0.51153808     0.12400
H1467       H  0.95504365  0.09212050  0.87760839     0.12500
C1468       C  0.94641233  0.15183017  0.90687574     0.62000
F1469       F  0.03573501  0.07998931  0.51992168    -0.23200
F1470       F  0.54752337  0.06280012  0.95965427    -0.20500
F1471       F  0.98688578  0.02410980  0.98912409    -0.20200
F1472       F  0.47371643  0.18977516  0.89225208    -0.20200
F1473       F  0.92109445  0.15491448  0.93422487    -0.20600
F1474       F  0.92226544  0.12886872  0.87508644    -0.23200
C1475       C  0.95698376  0.26491761  0.94388660    -0.06100
C1476       C  0.99467644  0.27545047  0.96062561    -0.00100
C1477       C  0.02932912  0.31236343  0.95014235    -0.08700
C1478       C  0.02489226  0.33820686  0.92312898    -0.06100
C1479       C  0.98700272  0.32775808  0.90539788    -0.00200
C1480       C  0.95224728  0.29002163  0.91626713    -0.08600
C1481       C  0.91011572  0.27549694  0.89932045     0.61700
H1482       H  0.93117632  0.23596490  0.95218804     0.12400
H1483       H  0.55149073  0.36663427  0.91525307     0.12500
C1484       C  0.07080336  0.32367431  0.46675748     0.62000
F1485       F  0.88164304  0.23752533  0.91325941    -0.23200
F1486       F  0.91045992  0.27294271  0.85812777    -0.20500
F1487       F  0.89781208  0.30224776  0.91078187    -0.20200
F1488       F  0.57985666  0.29399146  0.45676254    -0.20200
F1489       F  0.07078443  0.32690143  0.50787885    -0.20600
F1490       F  0.60111440  0.36022917  0.45178025    -0.23200
C1491       C  0.48692006  0.08131986  0.68416054    -0.06100
C1492       C  0.98348293  0.08328897  0.72578754    -0.00100
C1493       C  0.98110932  0.11663985  0.74205324    -0.08700
C1494       C  0.98137732  0.14545988  0.71592587    -0.06100
C1495       C  0.98521045  0.14404729  0.67433369    -0.00200
C1496       C  0.48826387  0.11112446  0.65799073    -0.08600
C1497       C  0.49328735  0.10688447  0.61354181     0.61700
H1498       H  0.48892698  0.05609272  0.67215624     0.12400
H1499       H  0.97887691  0.17012164  0.72850640     0.12500
C1500       C  0.97871583  0.12319589  0.78673990     0.62000
F1501       F  0.49679765  0.07330287  0.60504516    -0.23200
F1502       F  0.52815701  0.14068844  0.60009078    -0.20500
F1503       F  0.45979684  0.10247400  0.59276590    -0.20200
F1504       F  0.01300041  0.12797568  0.80608862    -0.20200
F1505       F  0.94442809  0.09067070  0.80250327    -0.20600
F1506       F  0.97642218  0.15754079  0.79488628    -0.23200
C1507       C  0.52320015  0.29730733  0.69840228    -0.06100
C1508       C  0.98883264  0.27445516  0.67444312    -0.00100
C1509       C  0.95555159  0.28088662  0.67697442    -0.08700
C1510       C  0.95790712  0.31044637  0.70380810    -0.06100
C1511       C  0.99211085  0.33314819  0.72866476    -0.00200
C1512       C  0.52563457  0.32640534  0.72579027    -0.08600
C1513       C  0.56330319  0.34800943  0.75236265     0.61700
H1514       H  0.54794596  0.29121964  0.69607531     0.12400
H1515       H  0.93234933  0.31523927  0.70627043     0.12500
C1516       C  0.91704980  0.25518095  0.65282693     0.62000
F1517       F  0.58959646  0.33341600  0.74686202    -0.23200
F1518       F  0.55227128  0.34243235  0.79214544    -0.20500
F1519       F  0.58435926  0.38892745  0.74356116    -0.20200
F1520       F  0.90167406  0.21461954  0.66160399    -0.20200
F1521       F  0.92556660  0.26125940  0.61253448    -0.20600
F1522       F  0.88734837  0.26476474  0.66109886    -0.23200
C1523       C  0.80634810  0.97818720  0.96795640    -0.06100
C1524       C  0.76728010  0.44523292  0.96233011    -0.00100
C1525       C  0.75983228  0.41786494  0.93050010    -0.08700
C1526       C  0.79190617  0.42547302  0.90471833    -0.06100
C1527       C  0.83115030  0.45956339  0.90928451    -0.00200
C1528       C  0.83829277  0.98600483  0.94184787    -0.08600
C1529       C  0.87916282  0.02328349  0.94898230     0.61700
H1530       H  0.81115079  0.99943749  0.99172493     0.12400
H1531       H  0.78585288  0.40533854  0.87956646     0.12500
C1532       C  0.71832908  0.38042124  0.92387500     0.62000
F1533       F  0.88123396  0.04224464  0.98490101    -0.23200
F1534       F  0.88625001  0.05052766  0.91872800    -0.20500
F1535       F  0.90860836  0.01240046  0.94979356    -0.20200
F1536       F  0.69130178  0.39133343  0.90909586    -0.20200
F1537       F  0.70392245  0.36003565  0.95955060    -0.20600
F1538       F  0.71993372  0.35385642  0.89683745    -0.23200
C1539       C  0.62455435  0.48086466  0.90405027    -0.06100
C1540       C  0.58599157  0.46741119  0.92046667    -0.00100
C1541       C  0.57737738  0.44942403  0.95890621    -0.08700
C1542       C  0.60754850  0.44458963  0.97865069    -0.06100
C1543       C  0.64587900  0.45769907  0.96165304    -0.00200
C1544       C  0.65499603  0.47745287  0.92404786    -0.08600
C1545       C  0.69684945  0.49650169  0.90502000     0.60500
H1546       H  0.63126015  0.49526901  0.87512282     0.12400
H1547       H  0.60079512  0.42991312  0.50776046     0.12500
C1548       C  0.53688002  0.43516018  0.97903848     0.62000
F1549       F  0.70054360  0.52111121  0.87306055    -0.23200
F1550       F  0.70371811  0.46653835  0.89083998    -0.20500
F1551       F  0.72673205  0.01955816  0.93269396    -0.20200
F1552       F  0.50560780  0.40690290  0.95520579    -0.20200
F1553       F  0.53113641  0.96742511  0.98551107    -0.20600
F1554       F  0.53386909  0.41631174  0.51531497    -0.23200
C1555       C  0.79306105  0.49975140  0.70715715    -0.06100
C1556       C  0.77978076  0.47199702  0.67525007    -0.00100
C1557       C  0.79716690  0.44697509  0.67043424    -0.08700
C1558       C  0.82585951  0.44957267  0.69897972    -0.06100
C1559       C  0.83812550  0.47654602  0.73155803    -0.00200
C1560       C  0.82178836  0.50263177  0.73545891    -0.08600
C1561       C  0.83321508  0.53264830  0.76985414     0.61700
H1562       H  0.78015845  0.51920623  0.71003820     0.12400
H1563       H  0.83895044  0.43028910  0.69616045     0.12500
C1564       C  0.78503462  0.41696174  0.63615347     0.62000
F1565       F  0.80966572  0.55081729  0.77032504    -0.23200
F1566       F  0.87321706  0.56312098  0.76615960    -0.20500
F1567       F  0.82663607  0.01066144  0.80633261    -0.20200
F1568       F  0.79744504  0.43777772  0.60046614    -0.20200
F1569       F  0.74335538  0.39146236  0.63546202    -0.20600
F1570       F  0.80272494  0.39309509  0.63953307    -0.23200
C1571       C  0.59044538  0.47865705  0.68066691    -0.06100
C1572       C  0.59567689  0.48155618  0.72229140    -0.00100
C1573       C  0.63127636  0.48317399  0.73891153    -0.08700
C1574       C  0.65794917  0.47935597  0.71327878    -0.06100
C1575       C  0.65251180  0.47526814  0.67170946    -0.00200
C1576       C  0.61839282  0.47613782  0.65484855    -0.08600
C1577       C  0.61110538  0.47487118  0.61013433     0.61700
H1578       H  0.56364204  0.47799375  0.66834396     0.12400
H1579       H  0.68392338  0.47913402  0.72640698     0.12500
C1580       C  0.64227302  0.48853930  0.78348735     0.62000
F1581       F  0.57793444  0.47898592  0.60079191    -0.23200
F1582       F  0.60372998  0.43815871  0.59472158    -0.20500
F1583       F  0.64466170  0.50644364  0.59202569    -0.20200
F1584       F  0.61405673  0.45512796  0.80463768    -0.20200
F1585       F  0.64464673  0.02497697  0.79719025    -0.20600
F1586       F  0.67982058  0.49247037  0.79123394    -0.23200
C1587       C  0.81142251  0.30320666  0.92574037    -0.06100
C1588       C  0.81017151  0.31276641  0.96602340    -0.00100
C1589       C  0.84110628  0.35123158  0.98062212    -0.08700
C1590       C  0.87285801  0.37725713  0.95471665    -0.06100
C1591       C  0.87385173  0.36743879  0.91436875    -0.00200
C1592       C  0.84131690  0.32991889  0.89924891    -0.08600
C1593       C  0.83653361  0.31737549  0.85533928     0.61700
H1594       H  0.78796221  0.27411639  0.91452908     0.12400
H1595       H  0.89699232  0.40615242  0.96578140     0.12500
C1596       C  0.84063965  0.36597146  0.52283572     0.62000
F1597       F  0.80374368  0.27883337  0.84859545    -0.23200
F1598       F  0.87053211  0.31716374  0.84193959    -0.20500
F1599       F  0.83014475  0.34399979  0.83290202    -0.20200
F1600       F  0.84750716  0.34286231  0.55009574    -0.20200
F1601       F  0.80357134  0.36296684  0.53020981    -0.20600
F1602       F  0.87050212  0.40610989  0.52857869    -0.23200
C1603       C  0.68569523  0.15351057  0.96035124    -0.06100
C1604       C  0.67987675  0.18613375  0.96780124    -0.00100
C1605       C  0.64556590  0.18623494  0.95230246    -0.08700
C1606       C  0.61947522  0.15469781  0.92648161    -0.06100
C1607       C  0.62655797  0.12295195  0.91612157    -0.00200
C1608       C  0.65914612  0.12118183  0.93548764    -0.08600
C1609       C  0.66548334  0.08518982  0.93189872     0.61700
H1610       H  0.71188912  0.15403976  0.97381363     0.12400
H1611       H  0.59386179  0.15550374  0.91339910     0.12500
C1612       C  0.63711004  0.21988755  0.96272626     0.62000
F1613       F  0.69578468  0.08828223  0.95727105    -0.23200
F1614       F  0.67628805  0.08182393  0.89337598    -0.20500
F1615       F  0.62993044  0.05072271  0.94241430    -0.20200
F1616       F  0.66737513  0.25621317  0.94740925    -0.20200
F1617       F  0.63545835  0.22279090  0.50436659    -0.20600
F1618       F  0.60013969  0.21249971  0.94741775    -0.23200
C1619       C  0.84210473  0.35829797  0.73293389    -0.06100
C1620       C  0.88106306  0.37782073  0.71615654    -0.00100
C1621       C  0.88597258  0.36812438  0.67666548    -0.08700
C1622       C  0.85218822  0.33566385  0.65726926    -0.06100
C1623       C  0.81385610  0.31419369  0.67570242    -0.00200
C1624       C  0.80819956  0.32752147  0.71327643    -0.08600
C1625       C  0.76696429  0.31009085  0.73316371     0.61700
H1626       H  0.83827792  0.36679616  0.76257850     0.12400
H1627       H  0.85574194  0.32626086  0.62783315     0.12500
C1628       C  0.92629272  0.39143253  0.65540363     0.62000
F1629       F  0.76777615  0.33440599  0.76425863    -0.23200
F1630       F  0.75541694  0.27228200  0.74874382    -0.20500
F1631       F  0.73824545  0.30718389  0.70578313    -0.20200
F1632       F  0.95628741  0.38935236  0.67686800    -0.20200
F1633       F  0.93661916  0.43159877  0.65167925    -0.20600
F1634       F  0.92459208  0.37618288  0.61749349    -0.23200
C1635       C  0.67177019  0.19660039  0.71169185    -0.06100
C1636       C  0.68707370  0.18306532  0.68116696    -0.00100
C1637       C  0.67383751  0.14112940  0.67841415    -0.08700
C1638       C  0.64583431  0.11425568  0.70680535    -0.06100
C1639       C  0.63096884  0.12808325  0.73770647    -0.00200
C1640       C  0.64442645  0.17018337  0.74032477    -0.08600
C1641       C  0.63163665  0.18789192  0.77409753     0.61700
H1642       H  0.68196172  0.22864415  0.71320684     0.12400
H1643       H  0.63553975  0.08215124  0.70529936     0.12500
C1644       C  0.69042969  0.12515656  0.64674714     0.62000
F1645       F  0.65405619  0.22988711  0.77474707    -0.23200
F1646       F  0.63738862  0.17434815  0.81054573    -0.20500
F1647       F  0.59119816  0.17644293  0.76943421    -0.20200
F1648       F  0.73232855  0.14494013  0.64977883    -0.20200
F1649       F  0.67948092  0.13174082  0.60926321    -0.20600
F1650       F  0.67559350  0.08393551  0.65078111    -0.23200
C1651       C  0.72110590  0.71381911  0.15675997     0.79900
N1652       N  0.75262243  0.74576084  0.17564490    -0.78400
C1653       C  0.78169844  0.77760948  0.15494698     0.82400
N1654       N  0.77959383  0.77713110  0.11463267    -0.78300
C1655       C  0.74851227  0.74557970  0.09505746     0.82500
N1656       N  0.71886260  0.71393550  0.11613131    -0.80000
C1657       C  0.71233020  0.71984711  0.49053946     0.79900
N1658       N  0.71455805  0.71744690  0.03116572    -0.78400
C1659       C  0.74678322  0.74710684  0.05138760     0.82400
N1660       N  0.77776327  0.77813247  0.03099402    -0.78300
C1661       C  0.77595469  0.78067585  0.49023249     0.82500
N1662       N  0.74309134  0.75082902  0.47059588    -0.80000
C1663       C  0.74491291  0.96777570  0.15074584     0.79900
N1664       N  0.74236165  0.96172711  0.11062858    -0.78400
C1665       C  0.71062612  0.95954052  0.08955312     0.82400
N1666       N  0.68156346  0.96376315  0.10876375    -0.78300
C1667       C  0.68377779  0.97018080  0.14878991     0.82500
N1668       N  0.71571209  0.97207013  0.16909927    -0.80000
C1669       C  0.73404500  0.94493597  0.48550527     0.79900
N1670       N  0.73652560  0.94917105  0.02603786    -0.78400
C1671       C  0.70801310  0.95371199  0.04597894     0.82400
N1672       N  0.67799883  0.95514134  0.02518355    -0.78300
C1673       C  0.67607429  0.95215785  0.48479234     0.82500
N1674       N  0.70374838  0.94623877  0.46552298    -0.80000
C1675       C  0.98836326  0.74153778  0.15103218     0.79900
N1676       N  0.98741259  0.71005798  0.17071523    -0.78400
C1677       C  0.98728961  0.67889999  0.15090188     0.82400
N1678       N  0.98869157  0.68027978  0.11045755    -0.78300
C1679       C  0.99034996  0.71197139  0.09017092     0.82500
N1680       N  0.99014449  0.74269350  0.11054808    -0.80000
C1681       C  0.99718465  0.74440151  0.48479219     0.79900
N1682       N  0.99541903  0.74451173  0.02530380    -0.78400
C1683       C  0.99284663  0.71279928  0.04642372     0.82400
N1684       N  0.99156570  0.68096140  0.02683795    -0.78300
C1685       C  0.99227677  0.68030244  0.48619785     0.82500
N1686       N  0.99594561  0.71256442  0.46572718    -0.80000
O1687       O  0.89171226  0.50707467  0.27830691    -0.88500
C1688       C  0.60036808  0.59413986  0.38410853     1.11600
O1689       O  0.94227721  0.97399845  0.31989494    -1.36300
O1690       O  0.57274026  0.60079613  0.27874907    -0.90000
O1691       O  0.86150474  0.94023162  0.27134864    -0.90600
O1692       O  0.94630960  0.93688082  0.23289288    -0.79400
O1693       O  0.98225324  0.55282975  0.28727827    -1.01500
C1694       C  0.56372111  0.98148003  0.24807320     1.21600
O1695       O  0.98636632  0.93397603  0.31886152    -1.36400
Mn1696     Mn  0.98393042  0.97346986  0.36459845     1.82100
O1697       O  0.53224008  0.98118275  0.23570521    -0.78500
O1698       O  0.61132770  0.57235521  0.28299585    -0.87900
C1699       C  0.55687752  0.97261866  0.39457150     1.12700
C1700       C  0.60326478  0.59828171  0.26817379     1.07400
O1701       O  0.93940355  0.92842439  0.40279461    -0.79500
O1702       O  0.52697643  0.51834180  0.32296260    -1.33200
O1703       O  0.90611538  0.89419104  0.35287590    -0.98700
C1704       C  0.99041852  0.86056679  0.25977326     1.06100
Mn1705     Mn  0.58500735  0.52468297  0.32520940     1.48600
O1706       O  0.95570565  0.85339989  0.27151285    -0.87900
Mn1707     Mn  0.88576908  0.91930323  0.31590478     1.49600
O1708       O  0.88973684  0.50111798  0.36805179    -0.91700
C1709       C  0.98343981  0.55103733  0.25127607     1.19300
C1710       C  0.86194132  0.96598301  0.37774954     1.11400
Mn1711     Mn  0.98710026  0.97791801  0.27648332     1.81000
O1712       O  0.56282908  0.97608300  0.35883985    -0.96900
Mn1713     Mn  0.93534627  0.52511494  0.32331354     1.49300
C1714       C  0.86561099  0.97438691  0.26201678     1.07900
Mn1715     Mn  0.54039031  0.93146973  0.32025950     1.49900
C1716       C  0.98665286  0.85636608  0.37471455     1.10800
O1717       O  0.91012061  0.89850961  0.27902582    -1.02700
O1718       O  0.60599985  0.56576196  0.37267732    -0.92400
C1719       C  0.91492495  0.90509786  0.24346631     1.22100
O1720       O  0.56740988  0.98034263  0.28448194    -1.03100
O1721       O  0.57389515  0.60044496  0.36779910    -0.90500
O1722       O  0.52049122  0.88533488  0.36275903    -0.90100
O1723       O  0.85743656  0.93435213  0.36039320    -0.90100
Mn1724     Mn  0.52929091  0.57470794  0.32346566     1.47900
O1725       O  0.52520111  0.97146269  0.40634362    -0.78600
C1726       C  0.90842324  0.89756998  0.38894847     1.15100
O1727       O  0.98643634  0.52197643  0.23753686    -0.77300
O1728       O  0.98316814  0.51399431  0.40823756    -0.76900
Mn1729     Mn  0.93370089  0.87618431  0.31606775     1.51100
O1730       O  0.52319902  0.88932668  0.27413439    -0.89300
O1731       O  0.98276248  0.55135570  0.36154722    -0.96800
O1732       O  0.95306654  0.85080911  0.36088137    -0.91800
C1733       C  0.98368362  0.54582490  0.39771439     1.12900
C1734       C  0.00398674  0.62164828  0.48225840    -0.06100
C1735       C  0.98837172  0.64459308  0.46448025    -0.00100
C1736       C  0.96860519  0.63240549  0.42676236    -0.08700
C1737       C  0.96855182  0.60023952  0.40710372    -0.06100
C1738       C  0.98434860  0.57737026  0.42424017    -0.00200
C1739       C  0.00182570  0.58768119  0.46285664    -0.08600
C1740       C  0.01848800  0.56355027  0.48304352     0.61700
H1741       H  0.01892332  0.63095148  0.01169948     0.12400
H1742       H  0.95466078  0.59191236  0.37780678     0.12500
C1743       C  0.94567385  0.65130474  0.40739724     0.62000
F1744       F  0.03642258  0.57993887  0.02010805    -0.23200
F1745       F  0.54770150  0.56298971  0.45940791    -0.20500
F1746       F  0.98730331  0.52420652  0.48907304    -0.20200
F1747       F  0.47273929  0.68929853  0.39255198    -0.20200
F1748       F  0.92052166  0.65427988  0.43503601    -0.20600
F1749       F  0.92129499  0.62814984  0.37581017    -0.23200
C1750       C  0.95739333  0.76463929  0.44326197    -0.06100
C1751       C  0.99491781  0.77546941  0.46062157    -0.00100
C1752       C  0.02947782  0.81269727  0.45069411    -0.08700
C1753       C  0.02508113  0.83857341  0.42367922    -0.06100
C1754       C  0.98733817  0.82789592  0.40546611    -0.00200
C1755       C  0.95270874  0.78978953  0.41566325    -0.08600
C1756       C  0.91076071  0.77489727  0.39800933     0.61700
H1757       H  0.93167395  0.73544778  0.45111166     0.12400
H1758       H  0.55162918  0.86726117  0.41620754     0.12500
C1759       C  0.07121233  0.82452464  0.96801937     0.62000
F1760       F  0.88251505  0.73646957  0.41111658    -0.23200
F1761       F  0.91192535  0.77317589  0.35680242    -0.20500
F1762       F  0.89755127  0.80088717  0.40963655    -0.20200
F1763       F  0.58098610  0.79530590  0.95842103    -0.20200
F1764       F  0.07040027  0.82752689  0.00910740    -0.20600
F1765       F  0.60147834  0.86135087  0.95351563    -0.23200
C1766       C  0.48736489  0.58167384  0.18425299    -0.06100
C1767       C  0.98375289  0.58357510  0.22584288    -0.00100
C1768       C  0.98131007  0.61689653  0.24208140    -0.08700
C1769       C  0.98170121  0.64576428  0.21594082    -0.06100
C1770       C  0.98579644  0.64445854  0.17437970    -0.00200
C1771       C  0.48888123  0.61154692  0.15807879    -0.08600
C1772       C  0.49410589  0.60738039  0.11365794     0.61700
H1773       H  0.48939041  0.55644883  0.17227110     0.12400
H1774       H  0.97912267  0.67039455  0.22848722     0.12500
C1775       C  0.97876097  0.62339403  0.28675248     0.62000
F1776       F  0.49758285  0.57377333  0.10519617    -0.23200
F1777       F  0.52907653  0.64117381  0.10036248    -0.20500
F1778       F  0.46074059  0.60307428  0.09271786    -0.20200
F1779       F  0.01299256  0.62815562  0.30620825    -0.20200
F1780       F  0.94441642  0.59084993  0.30241405    -0.20600
F1781       F  0.97643796  0.65772862  0.29487000    -0.23200
C1782       C  0.52411872  0.79792252  0.19852266    -0.06100
C1783       C  0.98980368  0.77501338  0.17447936    -0.00100
C1784       C  0.95629511  0.78105936  0.17721667    -0.08700
C1785       C  0.95841468  0.81039991  0.20420506    -0.06100
C1786       C  0.99261140  0.83326169  0.22903195    -0.00200
C1787       C  0.52628378  0.82674148  0.22612636    -0.08600
C1788       C  0.56375496  0.84817012  0.25297981     0.61700
H1789       H  0.54899681  0.79204057  0.19613260     0.12400
H1790       H  0.93267286  0.81487893  0.20680877     0.12500
C1791       C  0.91780811  0.75515366  0.15311594     0.62000
F1792       F  0.59006108  0.83357380  0.24759683    -0.23200
F1793       F  0.55240429  0.84233981  0.29267501    -0.20500
F1794       F  0.58491182  0.88914683  0.24444485    -0.20200
F1795       F  0.90275310  0.71462703  0.16181949    -0.20200
F1796       F  0.92623818  0.76133924  0.11281337    -0.20600
F1797       F  0.88789464  0.76440162  0.16151241    -0.23200
C1798       C  0.80629211  0.47811457  0.46813114    -0.06100
C1799       C  0.76738018  0.94583590  0.46217334    -0.00100
C1800       C  0.76025311  0.91760559  0.43133277    -0.08700
C1801       C  0.79232459  0.92501204  0.40561558    -0.06100
C1802       C  0.83114643  0.95998539  0.40902118    -0.00200
C1803       C  0.83820423  0.48594898  0.44197383    -0.08600
C1804       C  0.87920304  0.52293781  0.44937799     0.61700
H1805       H  0.81127602  0.49909419  0.49223212     0.12400
H1806       H  0.78651844  0.90400172  0.38134058     0.12500
C1807       C  0.71898293  0.87966204  0.42553708     0.62000
F1808       F  0.88142151  0.54154807  0.48556135    -0.23200
F1809       F  0.88641684  0.55054535  0.41947566    -0.20500
F1810       F  0.90846044  0.51179344  0.44977414    -0.20200
F1811       F  0.69146444  0.88980230  0.41046801    -0.20200
F1812       F  0.70514574  0.86007043  0.46166999    -0.20600
F1813       F  0.72072831  0.85270508  0.39913151    -0.23200
C1814       C  0.62478721  0.98152679  0.40432955    -0.06100
C1815       C  0.58620431  0.96807976  0.42068532    -0.00100
C1816       C  0.57745522  0.94988395  0.45903572    -0.08700
C1817       C  0.60755349  0.94492488  0.47878755    -0.06100
C1818       C  0.64587488  0.95795099  0.46180700    -0.00200
C1819       C  0.65509179  0.97782725  0.42426101    -0.08600
C1820       C  0.69689028  0.99658774  0.40516749     0.60500
H1821       H  0.63158299  0.99607355  0.37546422     0.12400
H1822       H  0.60100310  0.92985498  0.00759452     0.12500
C1823       C  0.53685020  0.93543202  0.47901963     0.62000
F1824       F  0.70074192  0.02130055  0.37324840    -0.23200
F1825       F  0.70339953  0.96639062  0.39093194    -0.20500
F1826       F  0.72627471  0.52047911  0.43300179    -0.20200
F1827       F  0.50570911  0.90727561  0.45499644    -0.20200
F1828       F  0.53061760  0.46710041  0.48559453    -0.20600
F1829       F  0.53417649  0.91647174  0.01511669    -0.23200
C1830       C  0.79239294  0.99882939  0.20749022    -0.06100
C1831       C  0.77944914  0.97141177  0.17530525    -0.00100
C1832       C  0.79700247  0.94655238  0.17033026    -0.08700
C1833       C  0.82577246  0.94920454  0.19880358    -0.06100
C1834       C  0.83773814  0.97588471  0.23159039    -0.00200
C1835       C  0.82092476  0.00150538  0.23590481    -0.08600
C1836       C  0.83143699  0.03058282  0.27101218     0.61700
H1837       H  0.77929601  0.01809777  0.21057682     0.12400
H1838       H  0.83912104  0.93016020  0.19579843     0.12500
C1839       C  0.78490255  0.91658329  0.13601207     0.62000
F1840       F  0.80724449  0.04803618  0.27191372    -0.23200
F1841       F  0.87126774  0.06165487  0.26813299    -0.20500
F1842       F  0.82635658  0.51052941  0.30637390    -0.20200
F1843       F  0.79733396  0.93743089  0.10034403    -0.20200
F1844       F  0.74322220  0.89107964  0.13529274    -0.20600
F1845       F  0.80257947  0.89270266  0.13938819    -0.23200
C1846       C  0.59003075  0.97781387  0.18069353    -0.06100
C1847       C  0.59570861  0.98147583  0.22226203    -0.00100
C1848       C  0.63157653  0.98360229  0.23877507    -0.08700
C1849       C  0.65821552  0.97976778  0.21310625    -0.06100
C1850       C  0.65233764  0.97490120  0.17160882    -0.00200
C1851       C  0.61780899  0.97503992  0.15483710    -0.08600
C1852       C  0.60986918  0.97265929  0.11017666     0.61700
H1853       H  0.56297482  0.97668978  0.16845795     0.12400
H1854       H  0.68451529  0.98014132  0.22616473     0.12500
C1855       C  0.64286970  0.98948548  0.28328582     0.62000
F1856       F  0.57608835  0.97573896  0.10087061    -0.23200
F1857       F  0.60307369  0.93589657  0.09548278    -0.20500
F1858       F  0.64282644  0.00424052  0.09135663    -0.20200
F1859       F  0.61494778  0.95619737  0.30478446    -0.20200
F1860       F  0.64409729  0.52304996  0.29765965    -0.20600
F1861       F  0.68058257  0.99377050  0.29092565    -0.23200
C1862       C  0.81191225  0.80304060  0.42582756    -0.06100
C1863       C  0.81091594  0.81227594  0.46627115    -0.00100
C1864       C  0.84205199  0.85056947  0.48103703    -0.08700
C1865       C  0.87362049  0.87680486  0.45505918    -0.06100
C1866       C  0.87432843  0.86733209  0.41454411    -0.00200
C1867       C  0.84171007  0.82990781  0.39933292    -0.08600
C1868       C  0.83675895  0.81759553  0.35533303     0.61700
H1869       H  0.78834043  0.77406753  0.41449954     0.12400
H1870       H  0.89786613  0.90558471  0.46622262     0.12500
C1871       C  0.84289506  0.86377544  0.02383528     0.62000
F1872       F  0.80386078  0.77914214  0.34848961    -0.23200
F1873       F  0.87065238  0.81730149  0.34170990    -0.20500
F1874       F  0.83043087  0.84440429  0.33313300    -0.20200
F1875       F  0.84991612  0.84013409  0.05026882    -0.20200
F1876       F  0.80601722  0.86086285  0.03205650    -0.20600
F1877       F  0.87296753  0.90376435  0.02995761    -0.23200
C1878       C  0.68504015  0.65231002  0.46148975    -0.06100
C1879       C  0.68033195  0.68576249  0.46797171    -0.00100
C1880       C  0.64677365  0.68675747  0.45164094    -0.08700
C1881       C  0.62044902  0.65527093  0.42588365    -0.06100
C1882       C  0.62653322  0.62268779  0.41641782    -0.00200
C1883       C  0.65821518  0.62004720  0.43670104    -0.08600
C1884       C  0.66325729  0.58321743  0.43414278     0.61700
H1885       H  0.71061434  0.65213513  0.47560761     0.12400
H1886       H  0.59550616  0.65680383  0.41210149     0.12500
C1887       C  0.63933421  0.72126916  0.46115327     0.62000
F1888       F  0.69250458  0.58546222  0.46049370    -0.23200
F1889       F  0.67469889  0.57926332  0.39609833    -0.20500
F1890       F  0.62688425  0.54944258  0.44414597    -0.20200
F1891       F  0.67015174  0.75696859  0.44534620    -0.20200
F1892       F  0.63826318  0.72332141  0.00462640    -0.20600
F1893       F  0.60266723  0.71447128  0.44556558    -0.23200
C1894       C  0.84251676  0.85803536  0.23265864    -0.06100
C1895       C  0.88161306  0.87737292  0.21622677    -0.00100
C1896       C  0.88697238  0.86710119  0.17713262    -0.08700
C1897       C  0.85341853  0.83432267  0.15782804    -0.06100
C1898       C  0.81489946  0.81313156  0.17593036    -0.00200
C1899       C  0.80882958  0.82701865  0.21298929    -0.08600
C1900       C  0.76738303  0.80992828  0.23231596     0.61700
H1901       H  0.83840682  0.86682230  0.26207066     0.12400
H1902       H  0.85728048  0.82448247  0.12873293     0.12500
C1903       C  0.92752427  0.89013591  0.15620906     0.62000
F1904       F  0.76785255  0.83479385  0.26267359    -0.23200
F1905       F  0.75570739  0.77241519  0.24872455    -0.20500
F1906       F  0.73895582  0.80652025  0.20429776    -0.20200
F1907       F  0.95736612  0.88857067  0.17846728    -0.20200
F1908       F  0.93778503  0.93019413  0.15156482    -0.20600
F1909       F  0.92628057  0.87424621  0.11873151    -0.23200
C1910       C  0.67290842  0.69608641  0.21215585    -0.06100
C1911       C  0.68786067  0.68222343  0.18157891    -0.00100
C1912       C  0.67389356  0.64013492  0.17865772    -0.08700
C1913       C  0.64567345  0.61348565  0.20701683    -0.06100
C1914       C  0.63125424  0.62765614  0.23801000    -0.00200
C1915       C  0.64533780  0.66986690  0.24075191    -0.08600
C1916       C  0.63297872  0.68785175  0.27462879     0.61700
H1917       H  0.68352086  0.72821186  0.21372573     0.12400
H1918       H  0.63485311  0.58127331  0.20542153     0.12500
C1919       C  0.68988143  0.62370537  0.14683549     0.62000
F1920       F  0.65581672  0.72982802  0.27529376    -0.23200
F1921       F  0.63861668  0.67411096  0.31101130    -0.20500
F1922       F  0.59264544  0.67686663  0.27012689    -0.20200
F1923       F  0.73175187  0.64281150  0.14973113    -0.20200
F1924       F  0.67905464  0.63062430  0.10943507    -0.20600
F1925       F  0.67435673  0.58236069  0.15077048    -0.23200
C1926       C  0.72071216  0.71382811  0.65633029     0.79900
N1927       N  0.75227009  0.74563635  0.67528682    -0.78400
C1928       C  0.78133640  0.77758606  0.65471125     0.82400
N1929       N  0.77917680  0.77733058  0.61439563    -0.78300
C1930       C  0.74804691  0.74588931  0.59472979     0.82500
N1931       N  0.71840032  0.71414329  0.61571466    -0.80000
C1932       C  0.71271985  0.71932026  0.99092754     0.79900
N1933       N  0.71414984  0.71790316  0.53077521    -0.78400
C1934       C  0.74631354  0.74757543  0.55106060     0.82400
N1935       N  0.77727721  0.77868163  0.53072404    -0.78300
C1936       C  0.77642390  0.78005592  0.99050164     0.82500
N1937       N  0.74351390  0.75020878  0.97092259    -0.80000
C1938       C  0.74490861  0.96771945  0.65072671     0.79900
N1939       N  0.74240595  0.96178599  0.61059239    -0.78400
C1940       C  0.71085922  0.95998251  0.58949097     0.82400
N1941       N  0.68195848  0.96447513  0.60868714    -0.78300
C1942       C  0.68413549  0.97079047  0.64872308     0.82500
N1943       N  0.71586915  0.97229076  0.66907056    -0.80000
C1944       C  0.73381837  0.94424255  0.98564173     0.79900
N1945       N  0.73677111  0.94978073  0.52590926    -0.78400
C1946       C  0.70825495  0.95426126  0.54590997     0.82400
N1947       N  0.67821923  0.95570534  0.52517197    -0.78300
C1948       C  0.67587413  0.95153220  0.98480675     0.82500
N1949       N  0.70354190  0.94554244  0.96559930    -0.80000
C1950       C  0.98754216  0.74106193  0.65086839     0.79900
N1951       N  0.98652163  0.70956788  0.67057655    -0.78400
C1952       C  0.98629870  0.67834427  0.65079510     0.82400
N1953       N  0.98766874  0.67967697  0.61033718    -0.78300
C1954       C  0.98936832  0.71138794  0.59003230     0.82500
N1955       N  0.98928101  0.74217071  0.61039370    -0.80000
C1956       C  0.99775541  0.74463259  0.98483751     0.79900
N1957       N  0.99469976  0.74413323  0.52524883    -0.78400
C1958       C  0.99192735  0.71229147  0.54629117     0.82400
N1959       N  0.99060107  0.68047273  0.52663449    -0.78300
C1960       C  0.99310419  0.68064857  0.98639846     0.82500
N1961       N  0.99659193  0.71279526  0.96585267    -0.80000
O1962       O  0.89198439  0.50754621  0.77882584    -0.88500
C1963       C  0.60070681  0.59405706  0.88426413     1.11600
O1964       O  0.94215140  0.97360919  0.81989808    -1.36300
O1965       O  0.57291570  0.60091821  0.77887596    -0.90000
O1966       O  0.86131392  0.93965615  0.77132733    -0.90600
O1967       O  0.94623526  0.93656990  0.73282236    -0.79400
O1968       O  0.98252789  0.55312302  0.78755197    -1.01500
C1969       C  0.56380858  0.98159184  0.74795415     1.21600
O1970       O  0.98641972  0.93377592  0.81877168    -1.36400
Mn1971     Mn  0.98390274  0.97318399  0.86455530     1.82100
O1972       O  0.53225582  0.98117356  0.73561011    -0.78500
O1973       O  0.61149188  0.57247084  0.78292605    -0.87900
C1974       C  0.55694089  0.97237544  0.89444427     1.12700
C1975       C  0.60339080  0.59839696  0.76815348     1.07400
O1976       O  0.93946983  0.92806964  0.90275872    -0.79500
O1977       O  0.52721054  0.51845006  0.82305696    -1.33200
O1978       O  0.90613874  0.89380485  0.85286963    -0.98700
C1979       C  0.99053057  0.86053149  0.75952754     1.06100
Mn1980     Mn  0.58521204  0.52474855  0.82515704     1.48600
O1981       O  0.95585193  0.85327858  0.77145239    -0.87900
Mn1982     Mn  0.88569064  0.91883317  0.81589580     1.49600
O1983       O  0.89027506  0.50142271  0.86862721    -0.91700
C1984       C  0.98358439  0.55123673  0.75152846     1.19300
C1985       C  0.86167975  0.96528387  0.87781811     1.11400
Mn1986     Mn  0.98701221  0.97768044  0.77643229     1.81000
O1987       O  0.56294213  0.97591706  0.85871221    -0.96900
Mn1988     Mn  0.93572531  0.52541239  0.82372656     1.49300
C1989       C  0.86538296  0.97380383  0.76201180     1.07900
Mn1990     Mn  0.54051268  0.93135972  0.82004081     1.49900
C1991       C  0.98690584  0.85621906  0.87450579     1.10800
O1992       O  0.91016860  0.89820318  0.77900162    -1.02700
O1993       O  0.60626265  0.56568743  0.87268009    -0.92400
C1994       C  0.91489153  0.90475382  0.74343006     1.22100
O1995       O  0.56744444  0.98030244  0.78434841    -1.03100
O1996       O  0.57430754  0.60051983  0.86801257    -0.90500
O1997       O  0.52070716  0.88515666  0.86245832    -0.90100
O1998       O  0.85722551  0.93370303  0.86040160    -0.90100
Mn1999     Mn  0.52960738  0.57485655  0.82368640     1.47900
O2000       O  0.52527196  0.97123761  0.90622318    -0.78600
C2001       C  0.90849787  0.89718524  0.88894541     1.15100
O2002       O  0.98657788  0.52218129  0.73777245    -0.77300
O2003       O  0.98354796  0.51403738  0.90849353    -0.76900
Mn2004     Mn  0.93380879  0.87594205  0.81602198     1.51100
O2005       O  0.52332831  0.88929745  0.77381265    -0.89300
O2006       O  0.98320902  0.55147473  0.86186825    -0.96800
O2007       O  0.95327538  0.85065476  0.86079826    -0.91800
C2008       C  0.98412290  0.54591060  0.89803091     1.12900
C2009       C  0.00462353  0.62183282  0.98255802    -0.06100
C2010       C  0.98910337  0.64485296  0.96474752    -0.00100
C2011       C  0.96926984  0.63262182  0.92706160    -0.08700
C2012       C  0.96911741  0.60039477  0.90743654    -0.06100
C2013       C  0.98479822  0.57743942  0.92459904    -0.00200
C2014       C  0.00229828  0.58775525  0.96321056    -0.08600
C2015       C  0.01877726  0.56349209  0.98346182     0.61700
H2016       H  0.01825568  0.63075706  0.51141234     0.12400
H2017       H  0.95516887  0.59204235  0.87816627     0.12500
C2018       C  0.94633298  0.65151126  0.90769402     0.62000
F2019       F  0.03606763  0.57997494  0.51971690    -0.23200
F2020       F  0.54790713  0.56268438  0.95978843    -0.20500
F2021       F  0.98744726  0.52423383  0.98956342    -0.20200
F2022       F  0.47343292  0.68942143  0.89266956    -0.20200
F2023       F  0.92133243  0.65468076  0.93537826    -0.20600
F2024       F  0.92178281  0.62822648  0.87625430    -0.23200
C2025       C  0.95784932  0.76456996  0.94306907    -0.06100
C2026       C  0.99536310  0.77558118  0.96058149    -0.00100
C2027       C  0.02985626  0.81287002  0.95069100    -0.08700
C2028       C  0.02540084  0.83865669  0.92360700    -0.06100
C2029       C  0.98766885  0.82781266  0.90527077    -0.00200
C2030       C  0.95311802  0.78961523  0.91536709    -0.08600
C2031       C  0.91122503  0.77449484  0.89744219     0.61700
H2032       H  0.93218706  0.73532549  0.95087419     0.12400
H2033       H  0.55188260  0.86743434  0.91622467     0.12500
C2034       C  0.07082723  0.82423533  0.46795761     0.62000
F2035       F  0.88311445  0.73593219  0.91034103    -0.23200
F2036       F  0.91268593  0.77297059  0.85624143    -0.20500
F2037       F  0.89762530  0.80019229  0.90899229    -0.20200
F2038       F  0.58039976  0.79481920  0.45837999    -0.20200
F2039       F  0.07009878  0.82733910  0.50904040    -0.20600
F2040       F  0.60117068  0.86092500  0.45328098    -0.23200
C2041       C  0.48652484  0.58122968  0.68435981    -0.06100
C2042       C  0.98359992  0.58357791  0.72601741    -0.00100
C2043       C  0.98140357  0.61704638  0.74220155    -0.08700
C2044       C  0.98151084  0.64572140  0.71598261    -0.06100
C2045       C  0.98497120  0.64401722  0.67435873    -0.00200
C2046       C  0.48762947  0.61083974  0.65807833    -0.08600
C2047       C  0.49195265  0.60612148  0.61357362     0.61700
H2048       H  0.48832370  0.55586632  0.67241043     0.12400
H2049       H  0.97920599  0.67051179  0.72851830     0.12500
C2050       C  0.97937217  0.62387205  0.78688974     0.62000
F2051       F  0.49488200  0.57220075  0.60510365    -0.23200
F2052       F  0.52683502  0.63956813  0.59961717    -0.20500
F2053       F  0.45834435  0.60194222  0.59321684    -0.20200
F2054       F  0.01374619  0.62862714  0.80602571    -0.20200
F2055       F  0.94514438  0.59150351  0.80293931    -0.20600
F2056       F  0.97727340  0.65833752  0.79496270    -0.23200
C2057       C  0.52378441  0.79777217  0.69786904    -0.06100
C2058       C  0.98921963  0.77466422  0.67425502    -0.00100
C2059       C  0.95571737  0.78067228  0.67731416    -0.08700
C2060       C  0.95810993  0.81018627  0.70421579    -0.06100
C2061       C  0.99257216  0.83324512  0.72866977    -0.00200
C2062       C  0.52625116  0.82680036  0.72538007    -0.08600
C2063       C  0.56411237  0.84861227  0.75166882     0.61700
H2064       H  0.54866060  0.79191920  0.69520609     0.12400
H2065       H  0.93237155  0.81464093  0.70706128     0.12500
C2066       C  0.91697733  0.75456955  0.65363415     0.62000
F2067       F  0.59058151  0.83429453  0.74578332    -0.23200
F2068       F  0.55339270  0.84291974  0.79153601    -0.20500
F2069       F  0.58485045  0.88954859  0.74291581    -0.20200
F2070       F  0.90204117  0.71411306  0.66258061    -0.20200
F2071       F  0.92497233  0.76045556  0.61323717    -0.20600
F2072       F  0.88714159  0.76385987  0.66227763    -0.23200
C2073       C  0.80685491  0.47733667  0.96905548    -0.06100
C2074       C  0.76716189  0.94504834  0.96237197    -0.00100
C2075       C  0.76002133  0.91680003  0.93154331    -0.08700
C2076       C  0.79205576  0.92423610  0.90574297    -0.06100
C2077       C  0.83090141  0.95917971  0.90916610    -0.00200
C2078       C  0.83891165  0.48517380  0.94308272    -0.08600
C2079       C  0.88023383  0.52140541  0.95135689     0.61700
H2080       H  0.81196123  0.49789047  0.99360863     0.12400
H2081       H  0.78621412  0.90326062  0.88142416     0.12500
C2082       C  0.71879975  0.87875820  0.92592434     0.62000
F2083       F  0.88261174  0.53881320  0.98830229    -0.23200
F2084       F  0.88804457  0.55016996  0.92255029    -0.20500
F2085       F  0.90903217  0.50964588  0.95070363    -0.20200
F2086       F  0.69112023  0.88871777  0.91093581    -0.20200
F2087       F  0.70516706  0.85926462  0.96213417    -0.20600
F2088       F  0.72056001  0.85178162  0.89955695    -0.23200
C2089       C  0.62480959  0.98116860  0.90430600    -0.06100
C2090       C  0.58619002  0.96770631  0.92057541    -0.00100
C2091       C  0.57732834  0.94937905  0.95887071    -0.08700
C2092       C  0.60738093  0.94437976  0.97867725    -0.06100
C2093       C  0.64572742  0.95738240  0.96176261    -0.00200
C2094       C  0.65502251  0.97730153  0.92423791    -0.08600
C2095       C  0.69680224  0.99587738  0.90514318     0.60500
H2096       H  0.63168288  0.99579781  0.87548175     0.12400
H2097       H  0.60124358  0.93044707  0.50772649     0.12500
C2098       C  0.53664166  0.93480613  0.97873496     0.62000
F2099       F  0.70077188  0.02061708  0.87321153    -0.23200
F2100       F  0.70311579  0.96554174  0.89093324    -0.20500
F2101       F  0.72659713  0.52043104  0.93261673    -0.20200
F2102       F  0.50559106  0.90677470  0.95454755    -0.20200
F2103       F  0.53153108  0.46791852  0.98553776    -0.20600
F2104       F  0.53452029  0.91729993  0.51549221    -0.23200
C2105       C  0.79262007  0.99876179  0.70725448    -0.06100
C2106       C  0.77931171  0.97108455  0.67529363    -0.00100
C2107       C  0.79638219  0.94577742  0.67055183    -0.08700
C2108       C  0.82513800  0.94833678  0.69900349    -0.06100
C2109       C  0.83750675  0.97532622  0.73157617    -0.00200
C2110       C  0.82109432  0.00132613  0.73567094    -0.08600
C2111       C  0.83200804  0.03077450  0.77050789     0.61700
H2112       H  0.77986871  0.01834559  0.71014764     0.12400
H2113       H  0.83814344  0.92898265  0.69614728     0.12500
C2114       C  0.78373773  0.91541825  0.63652658     0.62000
F2115       F  0.80806712  0.04850875  0.77129887    -0.23200
F2116       F  0.87189829  0.06161258  0.76726334    -0.20500
F2117       F  0.82788974  0.51304977  0.80598863    -0.20200
F2118       F  0.79617791  0.93585967  0.60064913    -0.20200
F2119       F  0.74198987  0.89035529  0.63607083    -0.20600
F2120       F  0.80093692  0.89112721  0.64013054    -0.23200
C2121       C  0.59037642  0.97840481  0.68056595    -0.06100
C2122       C  0.59599051  0.98197754  0.72213998    -0.00100
C2123       C  0.63200179  0.98440144  0.73864737    -0.08700
C2124       C  0.65876091  0.98076419  0.71297919    -0.06100
C2125       C  0.65281462  0.97573381  0.67150364    -0.00200
C2126       C  0.61826498  0.97581918  0.65471712    -0.08600
C2127       C  0.61042036  0.97358660  0.61004850     0.61700
H2128       H  0.56326084  0.97714630  0.66832313     0.12400
H2129       H  0.68517469  0.98135883  0.72602235     0.12500
C2130       C  0.64329401  0.99031645  0.78315496     0.62000
F2131       F  0.57670484  0.97677574  0.60073176    -0.23200
F2132       F  0.60358512  0.93684545  0.59525370    -0.20500
F2133       F  0.64344916  0.00519436  0.59133580    -0.20200
F2134       F  0.61558597  0.95686617  0.80460763    -0.20200
F2135       F  0.64419044  0.52340601  0.79774123    -0.20600
F2136       F  0.68117765  0.99500249  0.79075990    -0.23200
C2137       C  0.81208413  0.80259407  0.92594990    -0.06100
C2138       C  0.81133647  0.81167548  0.96648883    -0.00100
C2139       C  0.84265606  0.84985878  0.98129898    -0.08700
C2140       C  0.87407891  0.87616799  0.95522592    -0.06100
C2141       C  0.87451659  0.86686640  0.91461075    -0.00200
C2142       C  0.84177626  0.82952081  0.89940334    -0.08600
C2143       C  0.83656476  0.81738405  0.85534978     0.61700
H2144       H  0.78839539  0.77370104  0.91458576     0.12400
H2145       H  0.89844123  0.90486889  0.96640770     0.12500
C2146       C  0.84189874  0.86469070  0.52339581     0.62000
F2147       F  0.80351370  0.77903431  0.84846322    -0.23200
F2148       F  0.87031264  0.81697409  0.84142867    -0.20500
F2149       F  0.83027990  0.84439205  0.83345941    -0.20200
F2150       F  0.84894986  0.84136341  0.55021484    -0.20200
F2151       F  0.80483954  0.86154559  0.53118261    -0.20600
F2152       F  0.87173626  0.90479456  0.52939013    -0.23200
C2153       C  0.68594497  0.65224218  0.96106390    -0.06100
C2154       C  0.68069729  0.68522284  0.96841965    -0.00100
C2155       C  0.64657301  0.68575143  0.95300464    -0.08700
C2156       C  0.62025347  0.65439544  0.92711537    -0.06100
C2157       C  0.62686872  0.62235580  0.91672607    -0.00200
C2158       C  0.65907734  0.62003201  0.93626786    -0.08600
C2159       C  0.66458612  0.58352439  0.93304579     0.61700
H2160       H  0.71192460  0.65237026  0.97456634     0.12400
H2161       H  0.59486885  0.65559278  0.91398114     0.12500
C2162       C  0.63858461  0.71968444  0.96355304     0.62000
F2163       F  0.69442031  0.58604533  0.95874134    -0.23200
F2164       F  0.67548742  0.57979858  0.89468310    -0.20500
F2165       F  0.62858573  0.54952027  0.94345029    -0.20200
F2166       F  0.66883806  0.75579969  0.94786611    -0.20200
F2167       F  0.63855360  0.72546322  0.50211124    -0.20600
F2168       F  0.60151677  0.71247472  0.94871073    -0.23200
C2169       C  0.84249268  0.85736393  0.73290617    -0.06100
C2170       C  0.88149734  0.87697017  0.71625368    -0.00100
C2171       C  0.88666772  0.86702045  0.67695198    -0.08700
C2172       C  0.85304137  0.83436359  0.65758924    -0.06100
C2173       C  0.81462273  0.81292826  0.67585791    -0.00200
C2174       C  0.80873943  0.82639097  0.71326255    -0.08600
C2175       C  0.76740055  0.80898544  0.73293128     0.61700
H2176       H  0.83850968  0.86597726  0.76244350     0.12400
H2177       H  0.85677182  0.82481374  0.62829261     0.12500
C2178       C  0.92709546  0.89026554  0.65585225     0.62000
F2179       F  0.76805508  0.83329089  0.76395828    -0.23200
F2180       F  0.75572482  0.77116513  0.74855973    -0.20500
F2181       F  0.73885841  0.80613147  0.70535444    -0.20200
F2182       F  0.95704973  0.88848797  0.67769762    -0.20200
F2183       F  0.93732156  0.93036183  0.65169363    -0.20600
F2184       F  0.92564998  0.87473207  0.61814038    -0.23200
C2185       C  0.67210989  0.69600868  0.71131855    -0.06100
C2186       C  0.68749655  0.68220294  0.68111733    -0.00100
C2187       C  0.67417852  0.64023952  0.67871226    -0.08700
C2188       C  0.64609265  0.61361886  0.70717910    -0.06100
C2189       C  0.63121756  0.62772127  0.73782653    -0.00200
C2190       C  0.64466488  0.66984151  0.74002895    -0.08600
C2191       C  0.63175925  0.68784366  0.77342816     0.61700
H2192       H  0.68234705  0.72807124  0.71253610     0.12400
H2193       H  0.63576686  0.58149777  0.70595424     0.12500
C2194       C  0.69077660  0.62398083  0.64734286     0.62000
F2195       F  0.65411946  0.72984407  0.77369039    -0.23200
F2196       F  0.63745428  0.67467989  0.81012126    -0.20500
F2197       F  0.59131634  0.67629256  0.76854170    -0.20200
F2198       F  0.73265424  0.64360246  0.65057005    -0.20200
F2199       F  0.68006132  0.63046816  0.60970618    -0.20600
F2200       F  0.67573260  0.58274874  0.65161584    -0.23200
loop_ 
_geom_bond_atom_site_label_1 
_geom_bond_atom_site_label_2 
_geom_bond_distance 
_geom_bond_site_symmetry_2 
_ccdc_geom_bond_type 
C1            N2   1.357       .  A
C1            N6   1.363       .  A
C1          C261   1.491       .  S
N2            C3   1.356       .  A
C3            N4   1.352       .  A
C3          C248   1.480       .  S
N4            C5   1.354       .  A
C5            N6   1.367       .  A
C5            C9   1.466       .  S
C7           N12   1.353       .  A
C7          N283   1.353       .  A
C7          C229   1.462       .  S
N8            C9   1.355       .  A
N8          C282   1.353   1_554  A
C9           N10   1.366       .  A
N10         C286   1.360   1_554  A
C11          N12   1.359       .  A
C11         N285   1.360       .  A
C11         C213   1.506       .  S
C13          N14   1.357       .  A
C13          N18   1.357       .  A
C13         C181   1.493       .  S
N14          C15   1.362       .  A
C15          N16   1.364       .  A
C15          C21   1.471       .  S
N16          C17   1.357       .  A
C17          N18   1.360       .  A
C17         C200   1.513       .  S
C19          N24   1.353       .  A
C19         N295   1.362       .  A
C19         C149   1.484       .  S
N20          C21   1.364       .  A
N20         C294   1.362   1_554  A
C21          N22   1.359       .  A
N22         C298   1.357   1_554  A
C23          N24   1.354       .  A
C23         N297   1.357       .  A
C23         C168   1.487       .  S
C25          N26   1.355       .  A
C25          N30   1.358       .  A
C25         C133   1.478       .  S
N26          C27   1.361       .  A
C27          N28   1.356       .  A
C27         C120   1.508       .  S
N28          C29   1.361       .  A
C29          N30   1.361       .  A
C29          C33   1.468       .  S
C31          N36   1.353       .  A
C31         N307   1.358       .  A
C31         C101   1.473       .  S
N32          C33   1.362       .  A
N32         C306   1.358   1_554  A
C33          N34   1.361       .  A
N34         C310   1.357   1_554  A
C35          N36   1.354       .  A
C35         N309   1.357       .  A
C35          C85   1.485       .  S
O37         Mn63   2.078       .  S
O37         C614   1.265   1_545  A
C38         C232   1.496       .  S
C38          O71   1.270       .  A
C38          O68   1.266       .  A
O39         Mn46   2.182       .  S
O39         Mn57   2.117       .  S
O39         Mn61   2.200       .  S
O39        Mn613   2.103       .  S
O40         Mn74   2.085       .  S
O40          C50   1.268       .  A
O41         Mn57   2.107       .  S
O41          C64   1.271       .  A
O42         Mn61   2.125       .  S
O42          C69   1.253       .  A
O43         Mn63   1.973       .  S
O43       Mn1174   1.958       .  S
O43          C59   1.210       .  S
C44         C197   1.501       .  S
C44          O47   1.262       .  A
C44          O70   1.230       .  A
O45         Mn46   2.185       .  S
O45         Mn79   2.106       .  S
O45         Mn61   2.187       .  S
O45       Mn1165   2.110       .  S
Mn46         O51   2.134       .  S
Mn46       O1175   2.128       .  S
Mn46        O628   2.146       .  S
Mn46       O1702   2.193       .  S
O47       Mn1161   2.161   1_455  S
O48         Mn55   2.122       .  S
O48          C50   1.275       .  A
C49         C165   1.492       .  S
C49          O75   1.253       .  A
C49          O62   1.214       .  S
C50         C264   1.492       .  S
O51          C76   1.259       .  A
O52         Mn55   2.102       .  S
O52         Mn74   2.109       .  S
O52       Mn1696   2.194   1_445  S
O52       Mn1711   2.177   1_445  S
O53         Mn57   1.946       .  S
O53         Mn79   1.963       .  S
O53          C76   1.213       .  S
C54         C136   1.498       .  S
C54          O56   1.275       .  A
C54        O1180   1.267       .  A
Mn55         O68   2.083       .  S
Mn55        O620   2.012   1_545  S
Mn55        O612   1.978   1_545  S
O56         Mn79   2.108       .  S
Mn57         O73   2.091       .  S
Mn57         O67   1.944       .  S
O58         Mn63   2.129       .  S
O58         C610   1.277   1_545  A
C59         C117   1.501       .  S
C59          O77   1.259       .  A
C60         C152   1.509       .  S
C60          O73   1.271       .  A
C60         O608   1.277       .  A
Mn61       O1147   2.161       .  S
Mn61        O627   2.139       .  S
Mn61       O1702   2.178       .  S
O62         Mn65   1.954       .  S
O62        Mn605   1.977       .  S
Mn63        O589   2.103   1_545  S
Mn63         O81   2.012       .  S
C64         C184   1.488       .  S
C64         O587   1.265       .  A
Mn65         O72   2.089       .  S
Mn65         O80   2.080       .  S
Mn65       O1145   2.110   1_455  S
Mn65         O70   2.013       .  S
C66         C104   1.507       .  S
C66          O82   1.272       .  A
C66        O1172   1.271       .  A
O67         Mn79   1.957       .  S
O67          C69   1.213       .  S
C69         C245   1.482       .  S
O70        Mn605   2.012       .  S
O71         Mn74   2.082       .  S
O72        C1166   1.271   1_455  A
Mn74       O1181   2.001   1_455  S
Mn74       O1143   1.958   1_455  S
O75       Mn1146   2.128   1_455  S
C76         C216   1.503       .  S
O77        Mn611   2.139   1_545  S
O78        Mn596   2.146   1_545  S
O78          C83   1.256       .  A
Mn79         O82   2.108       .  S
O80        C1154   1.267   1_455  A
O81       Mn1174   2.001       .  S
O81          C83   1.233       .  A
C83          C88   1.487       .  S
C84          C85   1.413       .  A
C84          C89   1.415       .  A
C84         H366   1.082       .  S
C85          C86   1.419       .  A
C86          C87   1.393       .  A
C86          C93   1.528       .  S
C87          C88   1.407       .  A
C87          H92   1.080       .  S
C88          C89   1.412       .  A
C89          C90   1.514       .  S
C90          F96   1.383       .  S
C90         F369   1.384       .  S
C90        F1195   1.382       .  S
H91         C359   1.082   1_554  S
C93          F98   1.384       .  S
C93          F99   1.386       .  S
C93        F1197   1.383       .  S
F94         C365   1.384   1_554  S
F95        C1190   1.382       .  S
F97        C1193   1.383       .  S
C100        C101   1.395       .  A
C100        C105   1.407       .  A
C100        H107   1.083       .  S
C101        C102   1.408       .  A
C102        C103   1.409       .  A
C102        C384   1.517       .  S
C103        C104   1.416       .  A
C103       H1208   1.082       .  S
C104        C105   1.430       .  A
C105        C106   1.516       .  S
C106        F110   1.385       .  S
C106        F111   1.384       .  S
C106        F112   1.378       .  S
H108       C1203   1.082       .  S
C109        C377   1.517       .  S
C109        F114   1.383   1_556  S
C109       F1213   1.384       .  S
C109       F1215   1.384       .  S
F113       C1209   1.384       .  S
F115       C1209   1.384       .  S
C116        C121   1.416       .  A
C116       C1217   1.407       .  A
C116        H123   1.082       .  S
C117        C118   1.430       .  A
C117       C1216   1.407       .  A
C118        C119   1.401       .  A
C118        C125   1.528       .  S
C119        C120   1.405       .  A
C119        H124   1.079       .  S
C120       C1221   1.429       .  A
C121       C1220   1.429       .  A
C121        C122   1.521       .  S
C122        F126   1.385       .  S
C122        F127   1.383   1_655  S
C122        F128   1.383       .  S
C125        F129   1.382       .  S
C125        F130   1.379       .  S
C125        F131   1.385       .  S
C132        C137   1.407       .  A
C132       C1233   1.398   1_455  A
C132        H139   1.083       .  S
C133        C134   1.413       .  A
C133       C1232   1.398       .  A
C134        C135   1.410       .  A
C134        C141   1.517       .  S
C135        C136   1.410       .  A
C135        H140   1.083       .  S
C136       C1237   1.430       .  A
C137       C1236   1.430   1_455  A
C137        C138   1.523       .  S
C138        F142   1.385       .  S
C138        F143   1.384       .  S
C138        F144   1.382       .  S
C141        F145   1.384       .  S
C141        F146   1.382       .  S
C141        F147   1.385       .  S
C148        C153   1.410       .  A
C148        C699   1.399       .  A
C148        H155   1.083   1_565  S
C149        C150   1.416       .  A
C149        C698   1.399       .  A
C150        C151   1.409       .  A
C150        C157   1.519       .  S
C151        C152   1.411       .  A
C151        H156   1.083       .  S
C152        C703   1.425       .  A
C153        C702   1.425       .  A
C153        C154   1.506   1_565  S
C154        F158   1.385       .  S
C154        F159   1.379       .  S
C154        F160   1.380       .  S
C157        F161   1.381       .  S
C157        F162   1.383       .  S
C157        F163   1.385       .  S
C164        C165   1.406       .  A
C164        C169   1.398       .  A
C164        H171   1.081       .  S
C165        C166   1.420       .  A
C166        C167   1.414       .  A
C166        C173   1.518       .  S
C167        C168   1.409       .  A
C167        H447   1.082       .  S
C168        C169   1.420       .  A
C169        C170   1.525       .  S
C170        F174   1.384       .  S
C170        F175   1.382       .  S
C170        F726   1.384       .  S
H172        C442   1.082   1_554  S
C173        F177   1.382       .  S
C173        F728   1.383       .  S
C173        F454   1.385       .  S
F176        C720   1.384   1_545  S
F178        C723   1.383       .  S
F179        C448   1.385   1_554  S
C180        C181   1.404       .  A
C180        C185   1.404       .  A
C180        H187   1.083       .  S
C181        C182   1.422       .  A
C182        C183   1.412       .  A
C182        C189   1.518       .  S
C183        C184   1.406       .  A
C183        H188   1.083       .  S
C184        C185   1.423       .  A
C185        C186   1.523       .  S
C186        F190   1.385       .  S
C186        F191   1.381       .  S
C186        F742   1.384       .  S
C189        F193   1.383       .  S
C189        F194   1.383       .  S
C189        F195   1.385       .  S
F192        C736   1.384       .  S
C196        C197   1.403       .  A
C196        C201   1.418       .  A
C196        H203   1.088       .  S
C197        C198   1.435       .  A
C198        C199   1.399       .  A
C198        C205   1.533       .  S
C199        C200   1.403       .  A
C199        H204   1.085       .  S
C200        C201   1.430       .  A
C201        C202   1.517       .  S
C202        F206   1.385       .  S
C202        F207   1.382       .  S
C202        F208   1.383       .  S
C205        F209   1.383       .  S
C205        F211   1.385       .  S
C205        F760   1.381       .  S
F210        C755   1.381   1_545  S
C212        C213   1.405       .  A
C212        C217   1.403       .  A
C212        H219   1.080       .  S
C213        C214   1.425       .  A
C214        C215   1.417       .  A
C214        C496   1.519       .  S
C215        C216   1.408       .  A
C215        H220   1.082       .  S
C216        C217   1.430       .  A
C217        C218   1.528       .  S
C218        F222   1.385       .  S
C218        F223   1.380       .  S
C218        F224   1.380       .  S
C221        C489   1.519   1_554  S
C221        F225   1.382       .  S
C221        F226   1.384       .  S
C221        F227   1.385       .  S
C228        C229   1.394       .  A
C228        C233   1.403       .  A
C228        H235   1.084       .  S
C229        C230   1.406       .  A
C230        C231   1.402       .  A
C230        C237   1.516       .  S
C231        C232   1.413       .  A
C231        H236   1.082       .  S
C232        C233   1.429       .  A
C233        C234   1.516       .  S
C234        F238   1.385       .  S
C234        F239   1.383       .  S
C234        F240   1.378       .  S
C237        F241   1.383       .  S
C237        F243   1.385       .  S
C237        F517   1.383       .  S
F242        C512   1.383   1_554  S
C244        C245   1.405       .  A
C244        C249   1.392       .  A
C244        H251   1.078       .  S
C245        C246   1.413       .  A
C246        C247   1.412       .  A
C246        C253   1.516       .  S
C247        C248   1.412       .  A
C247        H252   1.082       .  S
C248        C249   1.416       .  A
C249        C250   1.523       .  S
C250        F254   1.385       .  S
C250        F255   1.383       .  S
C250        F256   1.384       .  S
C253        F257   1.382       .  S
C253        F258   1.383       .  S
C253        F259   1.384       .  S
C260        C261   1.403       .  A
C260        C265   1.406       .  A
C260        H267   1.082       .  S
C261        C262   1.418       .  A
C262        C263   1.416       .  A
C262        C269   1.516       .  S
C263        C264   1.408       .  A
C263        H268   1.083       .  S
C264        C265   1.422       .  A
C265        C266   1.522       .  S
C266        F270   1.385       .  S
C266        F271   1.384       .  S
C266        F272   1.382       .  S
C269        F273   1.383       .  S
C269        F274   1.382       .  S
C269        F275   1.385       .  S
C276        N277   1.357       .  A
C276        N281   1.363       .  A
C276        C536   1.492       .  S
N277        C278   1.356       .  A
C278        N279   1.352       .  A
C278        C523   1.481       .  S
N279        C280   1.354       .  A
C280        N281   1.367       .  A
C280        C284   1.466       .  S
C282        N287   1.354       .  A
C282        C504   1.462       .  S
N283        C284   1.355       .  A
C284        N285   1.366       .  A
C286        N287   1.359       .  A
C286        C488   1.506       .  S
C288        N289   1.358       .  A
C288        N293   1.357       .  A
C288        C456   1.493       .  S
N289        C290   1.362       .  A
C290        N291   1.364       .  A
C290        C296   1.472       .  S
N291        C292   1.357       .  A
C292        N293   1.360       .  A
C292        C475   1.512       .  S
C294        N299   1.353       .  A
C294        C424   1.484       .  S
N295        C296   1.364       .  A
C296        N297   1.360       .  A
C298        N299   1.354       .  A
C298        C443   1.487       .  S
C300        N301   1.355       .  A
C300        N305   1.357       .  A
C300        C408   1.478       .  S
N301        C302   1.361       .  A
C302        N303   1.356       .  A
C302        C395   1.509       .  S
N303        C304   1.361       .  A
C304        N305   1.361       .  A
C304        C308   1.468       .  S
C306        N311   1.353       .  A
C306        C376   1.473       .  S
N307        C308   1.362       .  A
C308        N309   1.361       .  A
C310        N311   1.354       .  A
C310        C360   1.486       .  S
O312       Mn338   2.078       .  S
O312        C889   1.265   1_545  A
C313        C507   1.496       .  S
C313        O346   1.270       .  A
C313        O343   1.266       .  A
O314       Mn321   2.182       .  S
O314       Mn332   2.116       .  S
O314       Mn336   2.200       .  S
O314       Mn888   2.104       .  S
O315       Mn349   2.085       .  S
O315        C325   1.268       .  A
O316       Mn332   2.109       .  S
O316        C339   1.272       .  A
O317       Mn336   2.126       .  S
O317        C344   1.254       .  A
O318      Mn1449   1.958       .  S
O318       Mn338   1.974       .  S
O318        C334   1.210       .  S
C319        C472   1.501       .  S
C319        O322   1.262       .  A
C319        O345   1.229       .  A
O320      Mn1440   2.110       .  S
O320       Mn321   2.185       .  S
O320       Mn354   2.106       .  S
O320       Mn336   2.186       .  S
Mn321      O1450   2.128       .  S
Mn321       O326   2.135       .  S
Mn321       O903   2.146       .  S
Mn321      O1977   2.194       .  S
O322      Mn1436   2.162   1_455  S
O323       Mn330   2.123       .  S
O323        C325   1.275       .  A
C324        C440   1.492       .  S
C324        O350   1.253       .  A
C324        O337   1.214       .  S
C325        C539   1.493       .  S
O326        C351   1.259       .  A
O327      Mn1971   2.193   1_445  S
O327       Mn330   2.103       .  S
O327       Mn349   2.109       .  S
O327      Mn1986   2.178   1_445  S
O328       Mn332   1.946       .  S
O328       Mn354   1.963       .  S
O328        C351   1.213       .  S
C329        C411   1.498       .  S
C329       O1455   1.266       .  A
C329        O331   1.275       .  A
Mn330       O343   2.082       .  S
Mn330       O895   2.012   1_545  S
Mn330       O887   1.979   1_545  S
O331       Mn354   2.108       .  S
Mn332       O348   2.088       .  S
Mn332       O342   1.944       .  S
O333       Mn338   2.130       .  S
O333        C885   1.277   1_545  A
C334        C392   1.501       .  S
C334        O352   1.259       .  A
C335        C427   1.507       .  S
C335        O883   1.277       .  A
C335        O348   1.271       .  A
Mn336      O1422   2.161       .  S
Mn336       O902   2.137       .  S
Mn336      O1977   2.178       .  S
O337       Mn880   1.977       .  S
O337       Mn340   1.953       .  S
Mn338       O864   2.103   1_545  S
Mn338       O356   2.012       .  S
C339        C459   1.490       .  S
C339        O862   1.265       .  A
Mn340       O347   2.089       .  S
Mn340       O355   2.079       .  S
Mn340      O1420   2.110   1_455  S
Mn340       O345   2.013       .  S
C341        C379   1.507       .  S
C341       O1447   1.271       .  A
C341        O357   1.272       .  A
O342       Mn354   1.957       .  S
O342        C344   1.213       .  S
C344        C520   1.482       .  S
O345       Mn880   2.011       .  S
O346       Mn349   2.082       .  S
O347       C1441   1.271   1_455  A
Mn349      O1456   2.002   1_455  S
Mn349      O1418   1.958   1_455  S
O350      Mn1421   2.128   1_455  S
C351        C491   1.503       .  S
O352       Mn886   2.140   1_545  S
O353       Mn871   2.147   1_545  S
O353        C358   1.256       .  A
Mn354       O357   2.108       .  S
O355       C1429   1.266   1_455  A
O356      Mn1449   2.002       .  S
O356        C358   1.233       .  A
C358        C363   1.488       .  S
C359        C360   1.413       .  A
C359        C364   1.416       .  A
C360        C361   1.419       .  A
C361        C362   1.393       .  A
C361        C368   1.528       .  S
C362        C363   1.407       .  A
C362        H367   1.080       .  S
C363        C364   1.412       .  A
C364        C365   1.514       .  S
C365       F1470   1.382       .  S
C365        F371   1.383       .  S
C368       F1472   1.383       .  S
C368        F373   1.384       .  S
C368        F374   1.386       .  S
F370       C1465   1.382       .  S
F372       C1468   1.383       .  S
C375        C376   1.395       .  A
C375        C380   1.407       .  A
C375        H382   1.083       .  S
C376        C377   1.408       .  A
C377        C378   1.409       .  A
C378        C379   1.416       .  A
C378       H1483   1.082       .  S
C379        C380   1.430       .  A
C380        C381   1.516       .  S
C381        F385   1.385       .  S
C381        F386   1.384       .  S
C381        F387   1.378       .  S
H383       C1478   1.082       .  S
C384       F1488   1.384       .  S
C384        F389   1.383       .  S
C384       F1490   1.384       .  S
F388       C1484   1.384       .  S
F390       C1484   1.384       .  S
C391       C1492   1.407       .  A
C391        C396   1.417       .  A
C391        H398   1.082       .  S
C392       C1491   1.407       .  A
C392        C393   1.430       .  A
C393        C394   1.402       .  A
C393        C400   1.528       .  S
C394        C395   1.406       .  A
C394        H399   1.079       .  S
C395       C1496   1.429       .  A
C396       C1495   1.429       .  A
C396        C397   1.521       .  S
C397        F401   1.385       .  S
C397        F402   1.383   1_655  S
C397        F403   1.383       .  S
C400        F404   1.382       .  S
C400        F405   1.379       .  S
C400        F406   1.385       .  S
C407       C1508   1.398   1_455  A
C407        C412   1.407       .  A
C407        H414   1.083       .  S
C408       C1507   1.397       .  A
C408        C409   1.413       .  A
C409        C410   1.410       .  A
C409        C416   1.517       .  S
C410        C411   1.410       .  A
C410        H415   1.083       .  S
C411       C1512   1.430       .  A
C412       C1511   1.430   1_455  A
C412        C413   1.523       .  S
C413        F417   1.385       .  S
C413        F418   1.384       .  S
C413        F419   1.382       .  S
C416        F420   1.384       .  S
C416        F421   1.382       .  S
C416        F422   1.385       .  S
C423        C974   1.399       .  A
C423        C428   1.410       .  A
C423        H430   1.083       .  S
C424        C973   1.400       .  A
C424        C425   1.416       .  A
C425        C426   1.409       .  A
C425        C432   1.520       .  S
C426        C427   1.410       .  A
C426        H431   1.083       .  S
C427        C978   1.424       .  A
C428        C977   1.425       .  A
C428        C429   1.506   1_565  S
C429        F433   1.385       .  S
C429        F434   1.379       .  S
C429        F435   1.380       .  S
C432        F436   1.381       .  S
C432        F437   1.383       .  S
C432        F438   1.385       .  S
C439        C440   1.407       .  A
C439        C444   1.398       .  A
C439        H446   1.081       .  S
C440        C441   1.419       .  A
C441        C442   1.413       .  A
C441        C448   1.518       .  S
C442        C443   1.409       .  A
C443        C444   1.420       .  A
C444        C445   1.525       .  S
C445        F449   1.384       .  S
C445        F450   1.381       .  S
C445       F1001   1.384       .  S
C448        F452   1.382       .  S
C448       F1003   1.383       .  S
F451        C995   1.384   1_545  S
F453        C998   1.383       .  S
C455        C456   1.404       .  A
C455        C460   1.405       .  A
C455        H462   1.083       .  S
C456        C457   1.421       .  A
C457        C458   1.413       .  A
C457        C464   1.518       .  S
C458        C459   1.406       .  A
C458        H463   1.083       .  S
C459        C460   1.423       .  A
C460        C461   1.523       .  S
C461        F465   1.385       .  S
C461        F466   1.381       .  S
C461       F1017   1.384       .  S
C464        F468   1.383       .  S
C464        F469   1.383       .  S
C464        F470   1.385       .  S
F467       C1011   1.384       .  S
C471        C472   1.403       .  A
C471        C476   1.418       .  A
C471        H478   1.088       .  S
C472        C473   1.436       .  A
C473        C474   1.399       .  A
C473        C480   1.533       .  S
C474        C475   1.403       .  A
C474        H479   1.085       .  S
C475        C476   1.430       .  A
C476        C477   1.517       .  S
C477        F481   1.385       .  S
C477        F482   1.382       .  S
C477        F483   1.383       .  S
C480        F484   1.383       .  S
C480       F1035   1.381       .  S
C480        F486   1.385       .  S
F485       C1030   1.381   1_545  S
C487        C488   1.405       .  A
C487        C492   1.403       .  A
C487        H494   1.080       .  S
C488        C489   1.425       .  A
C489        C490   1.417       .  A
C490        C491   1.408       .  A
C490        H495   1.082       .  S
C491        C492   1.430       .  A
C492        C493   1.528       .  S
C493        F497   1.385       .  S
C493        F498   1.379       .  S
C493        F499   1.380       .  S
C496        F500   1.382       .  S
C496        F501   1.384       .  S
C496        F502   1.385       .  S
C503        C504   1.394       .  A
C503        C508   1.403       .  A
C503        H510   1.084       .  S
C504        C505   1.406       .  A
C505        C506   1.402       .  A
C505        C512   1.516       .  S
C506        C507   1.413       .  A
C506        H511   1.082       .  S
C507        C508   1.429       .  A
C508        C509   1.516       .  S
C509        F513   1.385       .  S
C509        F514   1.383       .  S
C509        F515   1.379       .  S
C512        F516   1.383       .  S
C512        F518   1.385       .  S
C519        C520   1.405       .  A
C519        C524   1.393       .  A
C519        H526   1.078       .  S
C520        C521   1.413       .  A
C521        C522   1.412       .  A
C521        C528   1.516       .  S
C522        C523   1.412       .  A
C522        H527   1.082       .  S
C523        C524   1.416       .  A
C524        C525   1.523       .  S
C525        F529   1.385       .  S
C525        F530   1.383       .  S
C525        F531   1.384       .  S
C528        F532   1.382       .  S
C528        F533   1.383       .  S
C528        F534   1.384       .  S
C535        C536   1.403       .  A
C535        C540   1.406       .  A
C535        H542   1.082       .  S
C536        C537   1.418       .  A
C537        C538   1.416       .  A
C537        C544   1.516       .  S
C538        C539   1.408       .  A
C538        H543   1.083       .  S
C539        C540   1.422       .  A
C540        C541   1.522       .  S
C541        F545   1.385       .  S
C541        F546   1.384       .  S
C541        F547   1.382       .  S
C544        F548   1.383       .  S
C544        F549   1.382       .  S
C544        F550   1.385       .  S
C551        N552   1.357       .  A
C551        N556   1.363       .  A
C551        C811   1.492       .  S
N552        C553   1.356       .  A
C553        N554   1.351       .  A
C553        C798   1.480       .  S
N554        C555   1.354       .  A
C555        N556   1.367       .  A
C555        C559   1.466       .  S
C557        N833   1.353       .  A
C557        N562   1.354       .  A
C557        C779   1.462       .  S
N558        C832   1.353   1_554  A
N558        C559   1.354       .  A
C559        N560   1.366       .  A
N560        C836   1.360   1_554  A
C561        N835   1.360       .  A
C561        N562   1.359       .  A
C561        C763   1.506       .  S
C563        N564   1.358       .  A
C563        N568   1.357       .  A
C563        C731   1.493       .  S
N564        C565   1.362       .  A
C565        N566   1.364       .  A
C565        C571   1.471       .  S
N566        C567   1.357       .  A
C567        N568   1.360       .  A
C567        C750   1.512       .  S
C569        N845   1.362       .  A
C569        N574   1.353       .  A
C569        C699   1.483       .  S
N570        C844   1.362   1_554  A
N570        C571   1.364       .  A
C571        N572   1.360       .  A
N572        C848   1.357   1_554  A
C573        N847   1.357       .  A
C573        N574   1.354       .  A
C573        C718   1.487       .  S
C575        N576   1.355       .  A
C575        N580   1.358       .  A
C575        C683   1.478       .  S
N576        C577   1.361       .  A
C577        N578   1.356       .  A
C577        C670   1.508       .  S
N578        C579   1.361       .  A
C579        N580   1.361       .  A
C579        C583   1.468       .  S
C581        N857   1.359       .  A
C581        N586   1.353       .  A
C581        C651   1.474       .  S
N582        C856   1.359   1_554  A
N582        C583   1.363       .  A
C583        N584   1.361       .  A
N584        C860   1.356   1_554  A
C585        N859   1.356       .  A
C585        N586   1.354       .  A
C585        C635   1.485       .  S
O587       Mn613   2.079       .  S
C588        C782   1.497       .  S
C588        O621   1.270       .  A
C588        O618   1.266       .  A
O589       Mn596   2.182       .  S
O589       Mn607   2.116       .  S
O589       Mn611   2.200       .  S
O590       Mn624   2.086       .  S
O590        C600   1.269       .  A
O591       Mn607   2.108       .  S
O591        C614   1.272       .  A
O592       Mn611   2.124       .  S
O592        C619   1.253       .  A
O593      Mn1724   1.959       .  S
O593       Mn613   1.974       .  S
O593        C609   1.210       .  S
C594        C747   1.501       .  S
C594        O597   1.262       .  A
C594        O620   1.230       .  A
O595      Mn1715   2.111       .  S
O595       Mn596   2.185       .  S
O595       Mn629   2.106       .  S
O595       Mn611   2.187       .  S
Mn596      O1725   2.128       .  S
Mn596       O601   2.136       .  S
Mn596      O1152   2.194   1_565  S
O597      Mn1711   2.160   1_455  S
O598       Mn605   2.120       .  S
O598        C600   1.275       .  A
C599        C715   1.492       .  S
C599        O625   1.253       .  A
C599        O612   1.214       .  S
C600        C814   1.492       .  S
O601        C626   1.259       .  A
O602      Mn1146   2.193   1_455  S
O602       Mn605   2.102       .  S
O602       Mn624   2.109       .  S
O602      Mn1161   2.178   1_455  S
O603       Mn607   1.947       .  S
O603       Mn629   1.962       .  S
O603        C626   1.213       .  S
C604        C686   1.498       .  S
C604       O1730   1.267       .  A
C604        O606   1.275       .  A
Mn605       O618   2.084       .  S
O606       Mn629   2.109       .  S
Mn607       O623   2.091       .  S
Mn607       O617   1.945       .  S
O608       Mn613   2.131       .  S
C609        C667   1.501       .  S
C609        O627   1.259       .  A
C610        C702   1.509       .  S
C610        O623   1.271       .  A
Mn611      O1697   2.160       .  S
Mn611      O1152   2.177   1_565  S
O612       Mn615   1.954       .  S
Mn613       O631   2.012       .  S
C614        C734   1.489       .  S
Mn615       O622   2.090       .  S
Mn615       O630   2.080       .  S
Mn615      O1695   2.111   1_455  S
Mn615       O620   2.014       .  S
C616        C654   1.507       .  S
C616       O1722   1.271       .  A
C616        O632   1.272       .  A
O617       Mn629   1.957       .  S
O617        C619   1.213       .  S
C619        C795   1.481       .  S
O621       Mn624   2.083       .  S
O622       C1716   1.271   1_455  A
Mn624      O1731   2.002   1_455  S
Mn624      O1693   1.959   1_455  S
O625      Mn1696   2.128   1_455  S
C626        C766   1.503       .  S
O628        C633   1.256       .  A
Mn629       O632   2.107       .  S
O630       C1704   1.267   1_455  A
O631      Mn1724   2.002       .  S
O631        C633   1.233       .  A
C633        C638   1.487       .  S
C634        C635   1.413       .  A
C634        C639   1.415       .  A
C634        H916   1.082       .  S
C635        C636   1.418       .  A
C636        C637   1.393       .  A
C636        C643   1.528       .  S
C637        C638   1.407       .  A
C637        H642   1.080       .  S
C638        C639   1.412       .  A
C639        C640   1.514       .  S
C640        F919   1.384       .  S
C640       F1745   1.382       .  S
C640        F646   1.383       .  S
H641        C909   1.082   1_554  S
C643       F1747   1.383       .  S
C643        F648   1.384       .  S
C643        F649   1.386       .  S
F644        C915   1.384   1_554  S
F645       C1740   1.382       .  S
F647       C1743   1.383       .  S
C650        C651   1.395       .  A
C650        C655   1.406       .  A
C650        H657   1.083       .  S
C651        C652   1.408       .  A
C652        C653   1.410       .  A
C652        C934   1.517       .  S
C653        C654   1.416       .  A
C653       H1758   1.082       .  S
C654        C655   1.430       .  A
C655        C656   1.516       .  S
C656        F660   1.385       .  S
C656        F661   1.384       .  S
C656        F662   1.378       .  S
H658       C1753   1.082       .  S
C659        C927   1.517       .  S
C659       F1763   1.384       .  S
C659        F664   1.383   1_556  S
C659       F1765   1.383       .  S
F663       C1759   1.384       .  S
F665       C1759   1.383       .  S
C666       C1767   1.407       .  A
C666        C671   1.416       .  A
C666        H673   1.082       .  S
C667       C1766   1.407       .  A
C667        C668   1.430       .  A
C668        C669   1.402       .  A
C668        C675   1.528       .  S
C669        C670   1.406       .  A
C669        H674   1.079       .  S
C670       C1771   1.429       .  A
C671       C1770   1.429       .  A
C671        C672   1.522       .  S
C672        F676   1.385       .  S
C672        F677   1.383   1_655  S
C672        F678   1.383       .  S
C675        F679   1.382       .  S
C675        F680   1.379       .  S
C675        F681   1.385       .  S
C682       C1783   1.398   1_455  A
C682        C687   1.407       .  A
C682        H689   1.083       .  S
C683       C1782   1.398       .  A
C683        C684   1.412       .  A
C684        C685   1.410       .  A
C684        C691   1.517       .  S
C685        C686   1.410       .  A
C685        H690   1.082       .  S
C686       C1787   1.430       .  A
C687       C1786   1.430   1_455  A
C687        C688   1.523       .  S
C688        F692   1.385       .  S
C688        F693   1.384       .  S
C688        F694   1.382       .  S
C691        F695   1.384       .  S
C691        F696   1.382       .  S
C691        F697   1.385       .  S
C698        C703   1.410       .  A
C698        H705   1.083       .  S
C699        C700   1.415       .  A
C700        C701   1.409       .  A
C700        C707   1.519       .  S
C701        C702   1.411       .  A
C701        H706   1.083       .  S
C703        C704   1.505       .  S
C704        F708   1.385       .  S
C704        F709   1.378       .  S
C704        F710   1.380       .  S
C707        F711   1.381       .  S
C707        F712   1.383       .  S
C707        F713   1.385       .  S
C714        C715   1.407       .  A
C714        C719   1.398       .  A
C714        H721   1.081       .  S
C715        C716   1.420       .  A
C716        C717   1.414       .  A
C716        C723   1.518       .  S
C717        C718   1.409       .  A
C717        H997   1.082       .  S
C718        C719   1.420       .  A
C719        C720   1.525       .  S
C720        F724   1.384   1_565  S
C720        F725   1.382       .  S
H722        C992   1.082   1_554  S
C723        F727   1.382       .  S
C723       F1004   1.385       .  S
F729        C998   1.385   1_554  S
C730        C731   1.404       .  A
C730        C735   1.404   1_565  A
C730        H737   1.083   1_565  S
C731        C732   1.421       .  A
C732        C733   1.412       .  A
C732        C739   1.518       .  S
C733        C734   1.406       .  A
C733        H738   1.083       .  S
C734        C735   1.423   1_565  A
C735        C736   1.523       .  S
C736        F740   1.385       .  S
C736        F741   1.381       .  S
C739        F743   1.383       .  S
C739        F744   1.383       .  S
C739        F745   1.385       .  S
C746        C747   1.403       .  A
C746        C751   1.418       .  A
C746        H753   1.088       .  S
C747        C748   1.435       .  A
C748        C749   1.399       .  A
C748        C755   1.533       .  S
C749        C750   1.403       .  A
C749        H754   1.085       .  S
C750        C751   1.430       .  A
C751        C752   1.517       .  S
C752        F756   1.385       .  S
C752        F757   1.383       .  S
C752        F758   1.383   1_565  S
C755        F759   1.383       .  S
C755        F761   1.385       .  S
C762        C763   1.405       .  A
C762        C767   1.403       .  A
C762        H769   1.080       .  S
C763        C764   1.425       .  A
C764        C765   1.417       .  A
C764       C1046   1.519       .  S
C765        C766   1.408       .  A
C765        H770   1.082       .  S
C766        C767   1.430       .  A
C767        C768   1.528       .  S
C768        F772   1.385       .  S
C768        F773   1.380       .  S
C768        F774   1.380       .  S
C771       C1039   1.519   1_554  S
C771        F775   1.382       .  S
C771        F776   1.384       .  S
C771        F777   1.385       .  S
C778        C779   1.394       .  A
C778        C783   1.403       .  A
C778        H785   1.084       .  S
C779        C780   1.406       .  A
C780        C781   1.402       .  A
C780        C787   1.516       .  S
C781        C782   1.413       .  A
C781        H786   1.082       .  S
C782        C783   1.429       .  A
C783        C784   1.515       .  S
C784        F788   1.385       .  S
C784        F789   1.383       .  S
C784        F790   1.379       .  S
C787        F791   1.383       .  S
C787       F1067   1.383       .  S
C787        F793   1.385       .  S
F792       C1062   1.383   1_554  S
C794        C795   1.405       .  A
C794        C799   1.392       .  A
C794        H801   1.079       .  S
C795        C796   1.413       .  A
C796        C797   1.412       .  A
C796        C803   1.517       .  S
C797        C798   1.412       .  A
C797        H802   1.082       .  S
C798        C799   1.416       .  A
C799        C800   1.523       .  S
C800        F804   1.385       .  S
C800        F805   1.382       .  S
C800        F806   1.384       .  S
C803        F807   1.382       .  S
C803        F808   1.383       .  S
C803        F809   1.384       .  S
C810        C811   1.403       .  A
C810        C815   1.406       .  A
C810        H817   1.082       .  S
C811        C812   1.418       .  A
C812        C813   1.416       .  A
C812        C819   1.516       .  S
C813        C814   1.408       .  A
C813        H818   1.083       .  S
C814        C815   1.421       .  A
C815        C816   1.522       .  S
C816        F820   1.385       .  S
C816        F821   1.384       .  S
C816        F822   1.382       .  S
C819        F823   1.383       .  S
C819        F824   1.382       .  S
C819        F825   1.385       .  S
C826        N827   1.356       .  A
C826        N831   1.363       .  A
C826       C1086   1.491       .  S
N827        C828   1.356       .  A
C828        N829   1.352       .  A
C828       C1073   1.480       .  S
N829        C830   1.354       .  A
C830        N831   1.367       .  A
C830        C834   1.466       .  S
C832        N837   1.354       .  A
C832       C1054   1.462       .  S
N833        C834   1.355       .  A
C834        N835   1.366       .  A
C836        N837   1.359       .  A
C836       C1038   1.507       .  S
C838        N839   1.358       .  A
C838        N843   1.357       .  A
C838       C1006   1.493       .  S
N839        C840   1.362       .  A
C840        N841   1.364       .  A
C840        C846   1.471       .  S
N841        C842   1.357       .  A
C842        N843   1.360       .  A
C842       C1025   1.512       .  S
C844        N849   1.354       .  A
C844        C974   1.484       .  S
N845        C846   1.364       .  A
C846        N847   1.360       .  A
C848        N849   1.354       .  A
C848        C993   1.487       .  S
C850        N851   1.355       .  A
C850        N855   1.357       .  A
C850        C958   1.477       .  S
N851        C852   1.361       .  A
C852        N853   1.356       .  A
C852        C945   1.509       .  S
N853        C854   1.361       .  A
C854        N855   1.361       .  A
C854        C858   1.468       .  S
C856        N861   1.353       .  A
C856        C926   1.474       .  S
N857        C858   1.363       .  A
C858        N859   1.360       .  A
C860        N861   1.354       .  A
C860        C910   1.485       .  S
O862       Mn888   2.079       .  S
C863       C1057   1.497       .  S
C863        O896   1.270       .  A
C863        O893   1.266       .  A
O864       Mn871   2.182       .  S
O864       Mn882   2.116       .  S
O864       Mn886   2.200       .  S
O865       Mn899   2.085       .  S
O865        C875   1.268       .  A
O866       Mn882   2.109       .  S
O866        C889   1.272       .  A
O867       Mn886   2.126       .  S
O867        C894   1.254       .  A
O868      Mn1999   1.960       .  S
O868       Mn888   1.975       .  S
O868        C884   1.211       .  S
C869       C1022   1.501       .  S
C869        O872   1.262       .  A
C869        O895   1.229       .  A
O870      Mn1990   2.111       .  S
O870       Mn871   2.185       .  S
O870       Mn904   2.106       .  S
O870       Mn886   2.187       .  S
Mn871      O2000   2.127       .  S
Mn871       O876   2.136       .  S
Mn871      O1427   2.193   1_565  S
O872      Mn1986   2.161   1_455  S
O873       Mn880   2.122       .  S
O873        C875   1.275       .  A
C874        C990   1.492       .  S
C874        O900   1.253       .  A
C874        O887   1.215       .  S
C875       C1089   1.493       .  S
O876        C901   1.259       .  A
O877      Mn1421   2.194   1_455  S
O877       Mn880   2.102       .  S
O877       Mn899   2.109       .  S
O877      Mn1436   2.178   1_455  S
O878       Mn882   1.947       .  S
O878       Mn904   1.962       .  S
O878        C901   1.213       .  S
C879        C961   1.498       .  S
C879       O2005   1.267       .  A
C879        O881   1.274       .  A
Mn880       O893   2.082       .  S
O881       Mn904   2.107       .  S
Mn882       O898   2.091       .  S
Mn882       O892   1.944       .  S
O883       Mn888   2.131       .  S
C884        C942   1.501       .  S
C884        O902   1.259       .  A
C885        C977   1.509       .  S
C885        O898   1.271       .  A
Mn886      O1972   2.161       .  S
Mn886      O1427   2.178   1_565  S
O887       Mn890   1.954       .  S
Mn888       O906   2.012       .  S
C889       C1009   1.489       .  S
Mn890       O897   2.090       .  S
Mn890       O905   2.081       .  S
Mn890      O1970   2.111   1_455  S
Mn890       O895   2.014       .  S
C891        C929   1.506       .  S
C891       O1997   1.271       .  A
C891        O907   1.272       .  A
O892       Mn904   1.957       .  S
O892        C894   1.213       .  S
C894       C1070   1.481       .  S
O896       Mn899   2.085       .  S
O897       C1991   1.271   1_455  A
Mn899      O2006   2.001   1_455  S
Mn899      O1968   1.960   1_455  S
O900      Mn1971   2.127   1_455  S
C901       C1041   1.504       .  S
O903        C908   1.256       .  A
Mn904       O907   2.106       .  S
O905       C1979   1.267   1_455  A
O906      Mn1999   2.001       .  S
O906        C908   1.233       .  A
C908        C913   1.487       .  S
C909        C910   1.414       .  A
C909        C914   1.416       .  A
C910        C911   1.419       .  A
C911        C912   1.393       .  A
C911        C918   1.528       .  S
C912        C913   1.407       .  A
C912        H917   1.080       .  S
C913        C914   1.412       .  A
C914        C915   1.515       .  S
C915       F2020   1.382       .  S
C915        F921   1.383       .  S
C918       F2022   1.383       .  S
C918        F923   1.384       .  S
C918        F924   1.386       .  S
F920       C2015   1.382       .  S
F922       C2018   1.383       .  S
C925        C926   1.396       .  A
C925        C930   1.407       .  A
C925        H932   1.083       .  S
C926        C927   1.408       .  A
C927        C928   1.410       .  A
C928        C929   1.416       .  A
C928       H2033   1.082       .  S
C929        C930   1.430       .  A
C930        C931   1.517       .  S
C931        F935   1.385       .  S
C931        F936   1.384       .  S
C931        F937   1.378       .  S
H933       C2028   1.082       .  S
C934       F2038   1.384       .  S
C934        F939   1.383       .  S
C934       F2040   1.384       .  S
F938       C2034   1.384       .  S
F940       C2034   1.384       .  S
C941       C2042   1.407       .  A
C941        C946   1.416       .  A
C941        H948   1.082       .  S
C942       C2041   1.407       .  A
C942        C943   1.430       .  A
C943        C944   1.402       .  A
C943        C950   1.529       .  S
C944        C945   1.406       .  A
C944        H949   1.079       .  S
C945       C2046   1.429       .  A
C946       C2045   1.429       .  A
C946        C947   1.522       .  S
C947        F951   1.385       .  S
C947        F952   1.383   1_655  S
C947        F953   1.383       .  S
C950        F954   1.382       .  S
C950        F955   1.379       .  S
C950        F956   1.385       .  S
C957       C2058   1.398   1_455  A
C957        C962   1.407       .  A
C957        H964   1.083       .  S
C958       C2057   1.398       .  A
C958        C959   1.412       .  A
C959        C960   1.409       .  A
C959        C966   1.517       .  S
C960        C961   1.410       .  A
C960        H965   1.083       .  S
C961       C2062   1.430       .  A
C962       C2061   1.430   1_455  A
C962        C963   1.523       .  S
C963        F967   1.385       .  S
C963        F968   1.384       .  S
C963        F969   1.382       .  S
C966        F970   1.384       .  S
C966        F971   1.382       .  S
C966        F972   1.385       .  S
C973        C978   1.410       .  A
C973        H980   1.083       .  S
C974        C975   1.416       .  A
C975        C976   1.409       .  A
C975        C982   1.519       .  S
C976        C977   1.411       .  A
C976        H981   1.083       .  S
C978        C979   1.506       .  S
C979        F983   1.385       .  S
C979        F984   1.378       .  S
C979        F985   1.381       .  S
C982        F986   1.381       .  S
C982        F987   1.383       .  S
C982        F988   1.385       .  S
C989        C990   1.407       .  A
C989        C994   1.398       .  A
C989        H996   1.081       .  S
C990        C991   1.420       .  A
C991        C992   1.414       .  A
C991        C998   1.518       .  S
C992        C993   1.409       .  A
C993        C994   1.420       .  A
C994        C995   1.525       .  S
C995        F999   1.384   1_565  S
C995       F1000   1.382       .  S
C998       F1002   1.382       .  S
C1005      C1006   1.404       .  A
C1005      C1010   1.404   1_565  A
C1005      H1012   1.083   1_565  S
C1006      C1007   1.421       .  A
C1007      C1008   1.413       .  A
C1007      C1014   1.518       .  S
C1008      C1009   1.406       .  A
C1008      H1013   1.083       .  S
C1009      C1010   1.423   1_565  A
C1010      C1011   1.523       .  S
C1011      F1015   1.385       .  S
C1011      F1016   1.381       .  S
C1014      F1018   1.383       .  S
C1014      F1019   1.383       .  S
C1014      F1020   1.385       .  S
C1021      C1022   1.403       .  A
C1021      C1026   1.418       .  A
C1021      H1028   1.088       .  S
C1022      C1023   1.435       .  A
C1023      C1024   1.399       .  A
C1023      C1030   1.533       .  S
C1024      C1025   1.403       .  A
C1024      H1029   1.085       .  S
C1025      C1026   1.430       .  A
C1026      C1027   1.517       .  S
C1027      F1031   1.385       .  S
C1027      F1032   1.382       .  S
C1027      F1033   1.383   1_565  S
C1030      F1034   1.383       .  S
C1030      F1036   1.385       .  S
C1037      C1038   1.405       .  A
C1037      C1042   1.403       .  A
C1037      H1044   1.080       .  S
C1038      C1039   1.425       .  A
C1039      C1040   1.417       .  A
C1040      C1041   1.408       .  A
C1040      H1045   1.082       .  S
C1041      C1042   1.430       .  A
C1042      C1043   1.528       .  S
C1043      F1047   1.385       .  S
C1043      F1048   1.380       .  S
C1043      F1049   1.380       .  S
C1046      F1050   1.382       .  S
C1046      F1051   1.384       .  S
C1046      F1052   1.385       .  S
C1053      C1054   1.394       .  A
C1053      C1058   1.403       .  A
C1053      H1060   1.084       .  S
C1054      C1055   1.406       .  A
C1055      C1056   1.402       .  A
C1055      C1062   1.516       .  S
C1056      C1057   1.412       .  A
C1056      H1061   1.082       .  S
C1057      C1058   1.429       .  A
C1058      C1059   1.515       .  S
C1059      F1063   1.385       .  S
C1059      F1064   1.383       .  S
C1059      F1065   1.378       .  S
C1062      F1066   1.383       .  S
C1062      F1068   1.385       .  S
C1069      C1070   1.405       .  A
C1069      C1074   1.393       .  A
C1069      H1076   1.078       .  S
C1070      C1071   1.413       .  A
C1071      C1072   1.412       .  A
C1071      C1078   1.516       .  S
C1072      C1073   1.412       .  A
C1072      H1077   1.082       .  S
C1073      C1074   1.416       .  A
C1074      C1075   1.523       .  S
C1075      F1079   1.385       .  S
C1075      F1080   1.383       .  S
C1075      F1081   1.384       .  S
C1078      F1082   1.382       .  S
C1078      F1083   1.383       .  S
C1078      F1084   1.384       .  S
C1085      C1086   1.403       .  A
C1085      C1090   1.406       .  A
C1085      H1092   1.082       .  S
C1086      C1087   1.418       .  A
C1087      C1088   1.416       .  A
C1087      C1094   1.516       .  S
C1088      C1089   1.408       .  A
C1088      H1093   1.083       .  S
C1089      C1090   1.422       .  A
C1090      C1091   1.522       .  S
C1091      F1095   1.385       .  S
C1091      F1096   1.384       .  S
C1091      F1097   1.382       .  S
C1094      F1098   1.383       .  S
C1094      F1099   1.382       .  S
C1094      F1100   1.385       .  S
C1101      N1102   1.357       .  A
C1101      N1106   1.363       .  A
C1101      C1361   1.491       .  S
N1102      C1103   1.356       .  A
C1103      N1104   1.352       .  A
C1103      C1348   1.480       .  S
N1104      C1105   1.354       .  A
C1105      N1106   1.367       .  A
C1105      C1109   1.466       .  S
C1107      N1383   1.353       .  A
C1107      N1112   1.353       .  A
C1107      C1329   1.462       .  S
N1108      C1382   1.353   1_554  A
N1108      C1109   1.355       .  A
C1109      N1110   1.366       .  A
N1110      C1386   1.360   1_554  A
C1111      N1385   1.360       .  A
C1111      N1112   1.359       .  A
C1111      C1313   1.506       .  S
C1113      N1114   1.357       .  A
C1113      N1118   1.357       .  A
C1113      C1281   1.493       .  S
N1114      C1115   1.362       .  A
C1115      N1116   1.364       .  A
C1115      C1121   1.471       .  S
N1116      C1117   1.357       .  A
C1117      N1118   1.360       .  A
C1117      C1300   1.513       .  S
C1119      N1395   1.362       .  A
C1119      N1124   1.353       .  A
C1119      C1249   1.484       .  S
N1120      C1394   1.362   1_554  A
N1120      C1121   1.364       .  A
C1121      N1122   1.359       .  A
N1122      C1398   1.357   1_554  A
C1123      N1397   1.357       .  A
C1123      N1124   1.354       .  A
C1123      C1268   1.487       .  S
C1125      N1126   1.355       .  A
C1125      N1130   1.358       .  A
C1125      C1233   1.478       .  S
N1126      C1127   1.361       .  A
C1127      N1128   1.356       .  A
C1127      C1220   1.508       .  S
N1128      C1129   1.361       .  A
C1129      N1130   1.361       .  A
C1129      C1133   1.468       .  S
C1131      N1407   1.358       .  A
C1131      N1136   1.353       .  A
C1131      C1201   1.473       .  S
N1132      C1406   1.358   1_554  A
N1132      C1133   1.362       .  A
C1133      N1134   1.361       .  A
N1134      C1410   1.357   1_554  A
C1135      N1409   1.357       .  A
C1135      N1136   1.354       .  A
C1135      C1185   1.485       .  S
O1137     Mn1163   2.078       .  S
O1137      C1714   1.265   1_545  A
C1138      C1332   1.496       .  S
C1138      O1171   1.270       .  A
C1138      O1168   1.266       .  A
O1139     Mn1146   2.182       .  S
O1139     Mn1157   2.117       .  S
O1139     Mn1161   2.200       .  S
O1139     Mn1713   2.103       .  S
O1140     Mn1174   2.085       .  S
O1140      C1150   1.268       .  A
O1141     Mn1157   2.107       .  S
O1141      C1164   1.271       .  A
O1142     Mn1161   2.125       .  S
O1142      C1169   1.253       .  A
O1143     Mn1163   1.973       .  S
O1143      C1159   1.210       .  S
C1144      C1297   1.501       .  S
C1144      O1147   1.262       .  A
C1144      O1170   1.230       .  A
O1145     Mn1146   2.185       .  S
O1145     Mn1179   2.106       .  S
O1145     Mn1161   2.187       .  S
Mn1146     O1151   2.134       .  S
Mn1146     O1728   2.146       .  S
O1148     Mn1155   2.122       .  S
O1148      C1150   1.275       .  A
C1149      C1265   1.492       .  S
C1149      O1175   1.253       .  A
C1149      O1162   1.214       .  S
C1150      C1364   1.492       .  S
O1151      C1176   1.259       .  A
O1152     Mn1155   2.102       .  S
O1152     Mn1174   2.109       .  S
O1153     Mn1157   1.946       .  S
O1153     Mn1179   1.963       .  S
O1153      C1176   1.213       .  S
C1154      C1236   1.498       .  S
C1154      O1156   1.275       .  A
Mn1155     O1168   2.083       .  S
Mn1155     O1720   2.012   1_545  S
Mn1155     O1712   1.978   1_545  S
O1156     Mn1179   2.108       .  S
Mn1157     O1173   2.091       .  S
Mn1157     O1167   1.944       .  S
O1158     Mn1163   2.129       .  S
O1158      C1710   1.277   1_545  A
C1159      C1217   1.501       .  S
C1159      O1177   1.259       .  A
C1160      C1252   1.509       .  S
C1160      O1708   1.277       .  A
C1160      O1173   1.271       .  A
Mn1161     O1727   2.139       .  S
O1162     Mn1705   1.977       .  S
O1162     Mn1165   1.954       .  S
Mn1163     O1689   2.103   1_545  S
Mn1163     O1181   2.012       .  S
C1164      C1284   1.488       .  S
C1164      O1687   1.265       .  A
Mn1165     O1172   2.089       .  S
Mn1165     O1180   2.080       .  S
Mn1165     O1170   2.013       .  S
C1166      C1204   1.507       .  S
C1166      O1182   1.272       .  A
O1167     Mn1179   1.957       .  S
O1167      C1169   1.213       .  S
C1169      C1345   1.481       .  S
O1170     Mn1705   2.012       .  S
O1171     Mn1174   2.082       .  S
C1176      C1316   1.503       .  S
O1177     Mn1711   2.139   1_545  S
O1178     Mn1696   2.146   1_545  S
O1178      C1183   1.256       .  A
Mn1179     O1182   2.108       .  S
O1181      C1183   1.233       .  A
C1183      C1188   1.487       .  S
C1184      C1185   1.413   1_455  A
C1184      C1189   1.415       .  A
C1184      H1466   1.082       .  S
C1185      C1186   1.419       .  A
C1186      C1187   1.393       .  A
C1186      C1193   1.528       .  S
C1187      C1188   1.407       .  A
C1187      H1192   1.080       .  S
C1188      C1189   1.412   1_655  A
C1189      C1190   1.514       .  S
C1190      F1469   1.384       .  S
C1190      F1196   1.383   1_455  S
H1191      C1459   1.082   1_554  S
C1193      F1198   1.384       .  S
C1193      F1199   1.386       .  S
F1194      C1465   1.384   1_554  S
C1200      C1201   1.395       .  A
C1200      C1205   1.407       .  A
C1200      H1207   1.083       .  S
C1201      C1202   1.408   1_655  A
C1202      C1203   1.409       .  A
C1202      C1484   1.517       .  S
C1203      C1204   1.416   1_455  A
C1204      C1205   1.430       .  A
C1205      C1206   1.516       .  S
C1206      F1210   1.385       .  S
C1206      F1211   1.384       .  S
C1206      F1212   1.378       .  S
C1209      C1477   1.517       .  S
C1209      F1214   1.383   1_556  S
C1216      C1221   1.416       .  A
C1216      H1223   1.082       .  S
C1217      C1218   1.430       .  A
C1218      C1219   1.401       .  A
C1218      C1225   1.528       .  S
C1219      C1220   1.405       .  A
C1219      H1224   1.079       .  S
C1221      C1222   1.521       .  S
C1222      F1226   1.385       .  S
C1222      F1227   1.383       .  S
C1222      F1228   1.383       .  S
C1225      F1229   1.382   1_655  S
C1225      F1230   1.379       .  S
C1225      F1231   1.385       .  S
C1232      C1237   1.407       .  A
C1232      H1239   1.083       .  S
C1233      C1234   1.413       .  A
C1234      C1235   1.410       .  A
C1234      C1241   1.517       .  S
C1235      C1236   1.410       .  A
C1235      H1240   1.083       .  S
C1237      C1238   1.523       .  S
C1238      F1242   1.385       .  S
C1238      F1243   1.384       .  S
C1238      F1244   1.382       .  S
C1241      F1245   1.384       .  S
C1241      F1246   1.382       .  S
C1241      F1247   1.385       .  S
C1248      C1799   1.399       .  A
C1248      C1253   1.410       .  A
C1248      H1255   1.083   1_565  S
C1249      C1798   1.399       .  A
C1249      C1250   1.416       .  A
C1250      C1251   1.409       .  A
C1250      C1257   1.519       .  S
C1251      C1252   1.411       .  A
C1251      H1256   1.083       .  S
C1252      C1803   1.425       .  A
C1253      C1802   1.425       .  A
C1253      C1254   1.506   1_565  S
C1254      F1258   1.385       .  S
C1254      F1259   1.379       .  S
C1254      F1260   1.380       .  S
C1257      F1261   1.381       .  S
C1257      F1262   1.383       .  S
C1257      F1263   1.385       .  S
C1264      C1265   1.406       .  A
C1264      C1269   1.398       .  A
C1264      H1271   1.081       .  S
C1265      C1266   1.420       .  A
C1266      C1267   1.414       .  A
C1266      C1273   1.518       .  S
C1267      C1268   1.409       .  A
C1267      H1547   1.082       .  S
C1268      C1269   1.420       .  A
C1269      C1270   1.525       .  S
C1270      F1274   1.384       .  S
C1270      F1275   1.382       .  S
C1270      F1826   1.384       .  S
H1272      C1542   1.082   1_554  S
C1273      F1277   1.382       .  S
C1273      F1828   1.383       .  S
C1273      F1554   1.385       .  S
F1276      C1820   1.384   1_545  S
F1278      C1823   1.383       .  S
F1279      C1548   1.385   1_554  S
C1280      C1281   1.404       .  A
C1280      C1285   1.404       .  A
C1280      H1287   1.083       .  S
C1281      C1282   1.422       .  A
C1282      C1283   1.412       .  A
C1282      C1289   1.518       .  S
C1283      C1284   1.406       .  A
C1283      H1288   1.083       .  S
C1284      C1285   1.423       .  A
C1285      C1286   1.523       .  S
C1286      F1290   1.385       .  S
C1286      F1291   1.381       .  S
C1286      F1842   1.384       .  S
C1289      F1293   1.383       .  S
C1289      F1294   1.383       .  S
C1289      F1295   1.385       .  S
F1292      C1836   1.384       .  S
C1296      C1297   1.403       .  A
C1296      C1301   1.418       .  A
C1296      H1303   1.088       .  S
C1297      C1298   1.435       .  A
C1298      C1299   1.399       .  A
C1298      C1305   1.533       .  S
C1299      C1300   1.403       .  A
C1299      H1304   1.085       .  S
C1300      C1301   1.430       .  A
C1301      C1302   1.517       .  S
C1302      F1306   1.385       .  S
C1302      F1307   1.382       .  S
C1302      F1308   1.383       .  S
C1305      F1309   1.383       .  S
C1305      F1860   1.381       .  S
C1305      F1311   1.385       .  S
F1310      C1855   1.381   1_545  S
C1312      C1313   1.405       .  A
C1312      C1317   1.403       .  A
C1312      H1319   1.080       .  S
C1313      C1314   1.425       .  A
C1314      C1315   1.417       .  A
C1314      C1596   1.519       .  S
C1315      C1316   1.408       .  A
C1315      H1320   1.082       .  S
C1316      C1317   1.430       .  A
C1317      C1318   1.528       .  S
C1318      F1322   1.385       .  S
C1318      F1323   1.380       .  S
C1318      F1324   1.380       .  S
C1321      C1589   1.519   1_554  S
C1321      F1325   1.382       .  S
C1321      F1326   1.384       .  S
C1321      F1327   1.385       .  S
C1328      C1329   1.394       .  A
C1328      C1333   1.403       .  A
C1328      H1335   1.084       .  S
C1329      C1330   1.406       .  A
C1330      C1331   1.402       .  A
C1330      C1337   1.516       .  S
C1331      C1332   1.413       .  A
C1331      H1336   1.082       .  S
C1332      C1333   1.429       .  A
C1333      C1334   1.516       .  S
C1334      F1338   1.385       .  S
C1334      F1339   1.383       .  S
C1334      F1340   1.378       .  S
C1337      F1341   1.383       .  S
C1337      F1617   1.383       .  S
C1337      F1343   1.385       .  S
F1342      C1612   1.383   1_554  S
C1344      C1345   1.405       .  A
C1344      C1349   1.392       .  A
C1344      H1351   1.078       .  S
C1345      C1346   1.413       .  A
C1346      C1347   1.412       .  A
C1346      C1353   1.516       .  S
C1347      C1348   1.412       .  A
C1347      H1352   1.082       .  S
C1348      C1349   1.416       .  A
C1349      C1350   1.523       .  S
C1350      F1354   1.385       .  S
C1350      F1355   1.383       .  S
C1350      F1356   1.384       .  S
C1353      F1357   1.382       .  S
C1353      F1358   1.383       .  S
C1353      F1359   1.384       .  S
C1360      C1361   1.403       .  A
C1360      C1365   1.406       .  A
C1360      H1367   1.082       .  S
C1361      C1362   1.418       .  A
C1362      C1363   1.416       .  A
C1362      C1369   1.516       .  S
C1363      C1364   1.408       .  A
C1363      H1368   1.083       .  S
C1364      C1365   1.422       .  A
C1365      C1366   1.522       .  S
C1366      F1370   1.385       .  S
C1366      F1371   1.384       .  S
C1366      F1372   1.382       .  S
C1369      F1373   1.383       .  S
C1369      F1374   1.382       .  S
C1369      F1375   1.385       .  S
C1376      N1377   1.357       .  A
C1376      N1381   1.363       .  A
C1376      C1636   1.491       .  S
N1377      C1378   1.356       .  A
C1378      N1379   1.352       .  A
C1378      C1623   1.481       .  S
N1379      C1380   1.354       .  A
C1380      N1381   1.367       .  A
C1380      C1384   1.466       .  S
C1382      N1387   1.354       .  A
C1382      C1604   1.462       .  S
N1383      C1384   1.355       .  A
C1384      N1385   1.366       .  A
C1386      N1387   1.359       .  A
C1386      C1588   1.506       .  S
C1388      N1389   1.358       .  A
C1388      N1393   1.357       .  A
C1388      C1556   1.493       .  S
N1389      C1390   1.362       .  A
C1390      N1391   1.364       .  A
C1390      C1396   1.472       .  S
N1391      C1392   1.357       .  A
C1392      N1393   1.360       .  A
C1392      C1575   1.512       .  S
C1394      N1399   1.353       .  A
C1394      C1524   1.484       .  S
N1395      C1396   1.364       .  A
C1396      N1397   1.360       .  A
C1398      N1399   1.354       .  A
C1398      C1543   1.487       .  S
C1400      N1401   1.355       .  A
C1400      N1405   1.357       .  A
C1400      C1508   1.478       .  S
N1401      C1402   1.361       .  A
C1402      N1403   1.356       .  A
C1402      C1495   1.509       .  S
N1403      C1404   1.361       .  A
C1404      N1405   1.361       .  A
C1404      C1408   1.468       .  S
C1406      N1411   1.353       .  A
C1406      C1476   1.473       .  S
N1407      C1408   1.362       .  A
C1408      N1409   1.361       .  A
C1410      N1411   1.354       .  A
C1410      C1460   1.486       .  S
O1412     Mn1438   2.078       .  S
O1412      C1989   1.265   1_545  A
C1413      C1607   1.496       .  S
C1413      O1446   1.270       .  A
C1413      O1443   1.266       .  A
O1414     Mn1421   2.182       .  S
O1414     Mn1432   2.116       .  S
O1414     Mn1436   2.200       .  S
O1414     Mn1988   2.104       .  S
O1415     Mn1449   2.085       .  S
O1415      C1425   1.268       .  A
O1416     Mn1432   2.109       .  S
O1416      C1439   1.272       .  A
O1417     Mn1436   2.126       .  S
O1417      C1444   1.254       .  A
O1418     Mn1438   1.974       .  S
O1418      C1434   1.210       .  S
C1419      C1572   1.501       .  S
C1419      O1422   1.262       .  A
C1419      O1445   1.229       .  A
O1420     Mn1421   2.185       .  S
O1420     Mn1454   2.106       .  S
O1420     Mn1436   2.186       .  S
Mn1421     O1426   2.135       .  S
Mn1421     O2003   2.146       .  S
O1423     Mn1430   2.123       .  S
O1423      C1425   1.275       .  A
C1424      C1540   1.492       .  S
C1424      O1450   1.253       .  A
C1424      O1437   1.214       .  S
C1425      C1639   1.493       .  S
O1426      C1451   1.259       .  A
O1427     Mn1430   2.103       .  S
O1427     Mn1449   2.109       .  S
O1428     Mn1432   1.946       .  S
O1428     Mn1454   1.963       .  S
O1428      C1451   1.213       .  S
C1429      C1511   1.498       .  S
C1429      O1431   1.275       .  A
Mn1430     O1443   2.082       .  S
Mn1430     O1995   2.012   1_545  S
Mn1430     O1987   1.979   1_545  S
O1431     Mn1454   2.108       .  S
Mn1432     O1448   2.088       .  S
Mn1432     O1442   1.944       .  S
O1433     Mn1438   2.130       .  S
O1433      C1985   1.277   1_545  A
C1434      C1492   1.501       .  S
C1434      O1452   1.259       .  A
C1435      C1527   1.507       .  S
C1435      O1983   1.277       .  A
C1435      O1448   1.271       .  A
Mn1436     O2002   2.137       .  S
O1437     Mn1980   1.977       .  S
O1437     Mn1440   1.953       .  S
Mn1438     O1964   2.103   1_545  S
Mn1438     O1456   2.012       .  S
C1439      C1559   1.490       .  S
C1439      O1962   1.265       .  A
Mn1440     O1447   2.089       .  S
Mn1440     O1455   2.079       .  S
Mn1440     O1445   2.013       .  S
C1441      C1479   1.507       .  S
C1441      O1457   1.272       .  A
O1442     Mn1454   1.958       .  S
O1442      C1444   1.213       .  S
C1444      C1620   1.482       .  S
O1445     Mn1980   2.011       .  S
O1446     Mn1449   2.082       .  S
C1451      C1591   1.503       .  S
O1452     Mn1986   2.139   1_545  S
O1453     Mn1971   2.147   1_545  S
O1453      C1458   1.256       .  A
Mn1454     O1457   2.108       .  S
O1456      C1458   1.233       .  A
C1458      C1463   1.488       .  S
C1459      C1460   1.413   1_455  A
C1459      C1464   1.416       .  A
C1460      C1461   1.419       .  A
C1461      C1462   1.393       .  A
C1461      C1468   1.528       .  S
C1462      C1463   1.407       .  A
C1462      H1467   1.080       .  S
C1463      C1464   1.412   1_655  A
C1464      C1465   1.514       .  S
C1465      F1471   1.383   1_455  S
C1468      F1473   1.384       .  S
C1468      F1474   1.386       .  S
C1475      C1476   1.395       .  A
C1475      C1480   1.407       .  A
C1475      H1482   1.083       .  S
C1476      C1477   1.408   1_655  A
C1477      C1478   1.409       .  A
C1478      C1479   1.416   1_455  A
C1479      C1480   1.430       .  A
C1480      C1481   1.516       .  S
C1481      F1485   1.385       .  S
C1481      F1486   1.384       .  S
C1481      F1487   1.378       .  S
C1484      F1489   1.383       .  S
C1491      C1496   1.417       .  A
C1491      H1498   1.082       .  S
C1492      C1493   1.430       .  A
C1493      C1494   1.402       .  A
C1493      C1500   1.528       .  S
C1494      C1495   1.406       .  A
C1494      H1499   1.079       .  S
C1496      C1497   1.521       .  S
C1497      F1501   1.385       .  S
C1497      F1502   1.383       .  S
C1497      F1503   1.383       .  S
C1500      F1504   1.382   1_655  S
C1500      F1505   1.379       .  S
C1500      F1506   1.385       .  S
C1507      C1512   1.407       .  A
C1507      H1514   1.083       .  S
C1508      C1509   1.413       .  A
C1509      C1510   1.410       .  A
C1509      C1516   1.517       .  S
C1510      C1511   1.410       .  A
C1510      H1515   1.083       .  S
C1512      C1513   1.523       .  S
C1513      F1517   1.385       .  S
C1513      F1518   1.384       .  S
C1513      F1519   1.382       .  S
C1516      F1520   1.384       .  S
C1516      F1521   1.382       .  S
C1516      F1522   1.385       .  S
C1523      C2074   1.399       .  A
C1523      C1528   1.410       .  A
C1523      H1530   1.083       .  S
C1524      C2073   1.400       .  A
C1524      C1525   1.416       .  A
C1525      C1526   1.409       .  A
C1525      C1532   1.520       .  S
C1526      C1527   1.410       .  A
C1526      H1531   1.083       .  S
C1527      C2078   1.424       .  A
C1528      C2077   1.425       .  A
C1528      C1529   1.506   1_565  S
C1529      F1533   1.385       .  S
C1529      F1534   1.379       .  S
C1529      F1535   1.380       .  S
C1532      F1536   1.381       .  S
C1532      F1537   1.383       .  S
C1532      F1538   1.385       .  S
C1539      C1540   1.407       .  A
C1539      C1544   1.398       .  A
C1539      H1546   1.081       .  S
C1540      C1541   1.419       .  A
C1541      C1542   1.413       .  A
C1541      C1548   1.518       .  S
C1542      C1543   1.409       .  A
C1543      C1544   1.420       .  A
C1544      C1545   1.525       .  S
C1545      F1549   1.384       .  S
C1545      F1550   1.381       .  S
C1545      F2101   1.384       .  S
C1548      F1552   1.382       .  S
C1548      F2103   1.383       .  S
F1551      C2095   1.384   1_545  S
F1553      C2098   1.383       .  S
C1555      C1556   1.404       .  A
C1555      C1560   1.405       .  A
C1555      H1562   1.083       .  S
C1556      C1557   1.421       .  A
C1557      C1558   1.413       .  A
C1557      C1564   1.518       .  S
C1558      C1559   1.406       .  A
C1558      H1563   1.083       .  S
C1559      C1560   1.423       .  A
C1560      C1561   1.523       .  S
C1561      F1565   1.385       .  S
C1561      F1566   1.381       .  S
C1561      F2117   1.384       .  S
C1564      F1568   1.383       .  S
C1564      F1569   1.383       .  S
C1564      F1570   1.385       .  S
F1567      C2111   1.384       .  S
C1571      C1572   1.403       .  A
C1571      C1576   1.418       .  A
C1571      H1578   1.088       .  S
C1572      C1573   1.436       .  A
C1573      C1574   1.399       .  A
C1573      C1580   1.533       .  S
C1574      C1575   1.403       .  A
C1574      H1579   1.085       .  S
C1575      C1576   1.430       .  A
C1576      C1577   1.517       .  S
C1577      F1581   1.385       .  S
C1577      F1582   1.382       .  S
C1577      F1583   1.383       .  S
C1580      F1584   1.383       .  S
C1580      F2135   1.381       .  S
C1580      F1586   1.385       .  S
F1585      C2130   1.381   1_545  S
C1587      C1588   1.405       .  A
C1587      C1592   1.403       .  A
C1587      H1594   1.080       .  S
C1588      C1589   1.425       .  A
C1589      C1590   1.417       .  A
C1590      C1591   1.408       .  A
C1590      H1595   1.082       .  S
C1591      C1592   1.430       .  A
C1592      C1593   1.528       .  S
C1593      F1597   1.385       .  S
C1593      F1598   1.379       .  S
C1593      F1599   1.380       .  S
C1596      F1600   1.382       .  S
C1596      F1601   1.384       .  S
C1596      F1602   1.385       .  S
C1603      C1604   1.394       .  A
C1603      C1608   1.403       .  A
C1603      H1610   1.084       .  S
C1604      C1605   1.406       .  A
C1605      C1606   1.402       .  A
C1605      C1612   1.516       .  S
C1606      C1607   1.413       .  A
C1606      H1611   1.082       .  S
C1607      C1608   1.429       .  A
C1608      C1609   1.516       .  S
C1609      F1613   1.385       .  S
C1609      F1614   1.383       .  S
C1609      F1615   1.379       .  S
C1612      F1616   1.383       .  S
C1612      F1618   1.385       .  S
C1619      C1620   1.405       .  A
C1619      C1624   1.393       .  A
C1619      H1626   1.078       .  S
C1620      C1621   1.413       .  A
C1621      C1622   1.412       .  A
C1621      C1628   1.516       .  S
C1622      C1623   1.412       .  A
C1622      H1627   1.082       .  S
C1623      C1624   1.416       .  A
C1624      C1625   1.523       .  S
C1625      F1629   1.385       .  S
C1625      F1630   1.383       .  S
C1625      F1631   1.384       .  S
C1628      F1632   1.382       .  S
C1628      F1633   1.383       .  S
C1628      F1634   1.384       .  S
C1635      C1636   1.403       .  A
C1635      C1640   1.406       .  A
C1635      H1642   1.082       .  S
C1636      C1637   1.418       .  A
C1637      C1638   1.416       .  A
C1637      C1644   1.516       .  S
C1638      C1639   1.408       .  A
C1638      H1643   1.083       .  S
C1639      C1640   1.422       .  A
C1640      C1641   1.522       .  S
C1641      F1645   1.385       .  S
C1641      F1646   1.384       .  S
C1641      F1647   1.382       .  S
C1644      F1648   1.383       .  S
C1644      F1649   1.382       .  S
C1644      F1650   1.385       .  S
C1651      N1652   1.357       .  A
C1651      N1656   1.363       .  A
C1651      C1911   1.492       .  S
N1652      C1653   1.356       .  A
C1653      N1654   1.351       .  A
C1653      C1898   1.480       .  S
N1654      C1655   1.354       .  A
C1655      N1656   1.367       .  A
C1655      C1659   1.466       .  S
C1657      N1933   1.353       .  A
C1657      N1662   1.354       .  A
C1657      C1879   1.462       .  S
N1658      C1932   1.353   1_554  A
N1658      C1659   1.354       .  A
C1659      N1660   1.366       .  A
N1660      C1936   1.360   1_554  A
C1661      N1935   1.360       .  A
C1661      N1662   1.359       .  A
C1661      C1863   1.507       .  S
C1663      N1664   1.358       .  A
C1663      N1668   1.357       .  A
C1663      C1831   1.493       .  S
N1664      C1665   1.362       .  A
C1665      N1666   1.364       .  A
C1665      C1671   1.471       .  S
N1666      C1667   1.357       .  A
C1667      N1668   1.360       .  A
C1667      C1850   1.512       .  S
C1669      N1945   1.362       .  A
C1669      N1674   1.353       .  A
C1669      C1799   1.483       .  S
N1670      C1944   1.362   1_554  A
N1670      C1671   1.364       .  A
C1671      N1672   1.360       .  A
N1672      C1948   1.357   1_554  A
C1673      N1947   1.357       .  A
C1673      N1674   1.354       .  A
C1673      C1818   1.487       .  S
C1675      N1676   1.355       .  A
C1675      N1680   1.358       .  A
C1675      C1783   1.478       .  S
N1676      C1677   1.361       .  A
C1677      N1678   1.356       .  A
C1677      C1770   1.508       .  S
N1678      C1679   1.361       .  A
C1679      N1680   1.361       .  A
C1679      C1683   1.468       .  S
C1681      N1957   1.359       .  A
C1681      N1686   1.353       .  A
C1681      C1751   1.474       .  S
N1682      C1956   1.359   1_554  A
N1682      C1683   1.363       .  A
C1683      N1684   1.361       .  A
N1684      C1960   1.356   1_554  A
C1685      N1959   1.356       .  A
C1685      N1686   1.354       .  A
C1685      C1735   1.485       .  S
O1687     Mn1713   2.079       .  S
C1688      C1882   1.497       .  S
C1688      O1721   1.270       .  A
C1688      O1718   1.266       .  A
O1689     Mn1696   2.182       .  S
O1689     Mn1707   2.116       .  S
O1689     Mn1711   2.200       .  S
O1690     Mn1724   2.086       .  S
O1690      C1700   1.269       .  A
O1691     Mn1707   2.108       .  S
O1691      C1714   1.272       .  A
O1692     Mn1711   2.124       .  S
O1692      C1719   1.253       .  A
O1693     Mn1713   1.974       .  S
O1693      C1709   1.210       .  S
C1694      C1847   1.501       .  S
C1694      O1697   1.262       .  A
C1694      O1720   1.230       .  A
O1695     Mn1696   2.185       .  S
O1695     Mn1729   2.106       .  S
O1695     Mn1711   2.187       .  S
Mn1696     O1701   2.136       .  S
O1698     Mn1705   2.120       .  S
O1698      C1700   1.275       .  A
C1699      C1815   1.492       .  S
C1699      O1725   1.253       .  A
C1699      O1712   1.214       .  S
C1700      C1914   1.492       .  S
O1701      C1726   1.259       .  A
O1702     Mn1705   2.102       .  S
O1702     Mn1724   2.109       .  S
O1703     Mn1707   1.947       .  S
O1703     Mn1729   1.962       .  S
O1703      C1726   1.213       .  S
C1704      C1786   1.498       .  S
C1704      O1706   1.275       .  A
Mn1705     O1718   2.084       .  S
O1706     Mn1729   2.109       .  S
Mn1707     O1723   2.091       .  S
Mn1707     O1717   1.945       .  S
O1708     Mn1713   2.131       .  S
C1709      C1767   1.501       .  S
C1709      O1727   1.259       .  A
C1710      C1802   1.509       .  S
C1710      O1723   1.271       .  A
O1712     Mn1715   1.954       .  S
Mn1713     O1731   2.012       .  S
C1714      C1834   1.489       .  S
Mn1715     O1722   2.090       .  S
Mn1715     O1730   2.080       .  S
Mn1715     O1720   2.014       .  S
C1716      C1754   1.507       .  S
C1716      O1732   1.272       .  A
O1717     Mn1729   1.957       .  S
O1717      C1719   1.213       .  S
C1719      C1895   1.481       .  S
O1721     Mn1724   2.083       .  S
C1726      C1866   1.503       .  S
O1728      C1733   1.256       .  A
Mn1729     O1732   2.107       .  S
O1731      C1733   1.233       .  A
C1733      C1738   1.487       .  S
C1734      C1735   1.413   1_455  A
C1734      C1739   1.415       .  A
C1734      H2016   1.082       .  S
C1735      C1736   1.418       .  A
C1736      C1737   1.393       .  A
C1736      C1743   1.528       .  S
C1737      C1738   1.407       .  A
C1737      H1742   1.080       .  S
C1738      C1739   1.412   1_655  A
C1739      C1740   1.515       .  S
C1740      F2019   1.384       .  S
C1740      F1746   1.383   1_455  S
H1741      C2009   1.082   1_554  S
C1743      F1748   1.384       .  S
C1743      F1749   1.386       .  S
F1744      C2015   1.384   1_554  S
C1750      C1751   1.395       .  A
C1750      C1755   1.406       .  A
C1750      H1757   1.083       .  S
C1751      C1752   1.408   1_655  A
C1752      C1753   1.410       .  A
C1752      C2034   1.517       .  S
C1753      C1754   1.416   1_455  A
C1754      C1755   1.430       .  A
C1755      C1756   1.516       .  S
C1756      F1760   1.385       .  S
C1756      F1761   1.384       .  S
C1756      F1762   1.378       .  S
C1759      C2027   1.517       .  S
C1759      F1764   1.383   1_556  S
C1766      C1771   1.416       .  A
C1766      H1773   1.082       .  S
C1767      C1768   1.430       .  A
C1768      C1769   1.402       .  A
C1768      C1775   1.528       .  S
C1769      C1770   1.406       .  A
C1769      H1774   1.079       .  S
C1771      C1772   1.522       .  S
C1772      F1776   1.385       .  S
C1772      F1777   1.383       .  S
C1772      F1778   1.383       .  S
C1775      F1779   1.382   1_655  S
C1775      F1780   1.379       .  S
C1775      F1781   1.385       .  S
C1782      C1787   1.407       .  A
C1782      H1789   1.083       .  S
C1783      C1784   1.412       .  A
C1784      C1785   1.410       .  A
C1784      C1791   1.517       .  S
C1785      C1786   1.410       .  A
C1785      H1790   1.082       .  S
C1787      C1788   1.523       .  S
C1788      F1792   1.385       .  S
C1788      F1793   1.384       .  S
C1788      F1794   1.382       .  S
C1791      F1795   1.384       .  S
C1791      F1796   1.382       .  S
C1791      F1797   1.385       .  S
C1798      C1803   1.410       .  A
C1798      H1805   1.083       .  S
C1799      C1800   1.415       .  A
C1800      C1801   1.409       .  A
C1800      C1807   1.519       .  S
C1801      C1802   1.411       .  A
C1801      H1806   1.083       .  S
C1803      C1804   1.505       .  S
C1804      F1808   1.385       .  S
C1804      F1809   1.379       .  S
C1804      F1810   1.380       .  S
C1807      F1811   1.381       .  S
C1807      F1812   1.383       .  S
C1807      F1813   1.385       .  S
C1814      C1815   1.407       .  A
C1814      C1819   1.398       .  A
C1814      H1821   1.081       .  S
C1815      C1816   1.420       .  A
C1816      C1817   1.414       .  A
C1816      C1823   1.518       .  S
C1817      C1818   1.409       .  A
C1817      H2097   1.082       .  S
C1818      C1819   1.420       .  A
C1819      C1820   1.525       .  S
C1820      F1824   1.384   1_565  S
C1820      F1825   1.382       .  S
H1822      C2092   1.082   1_554  S
C1823      F1827   1.382       .  S
C1823      F2104   1.385       .  S
F1829      C2098   1.385   1_554  S
C1830      C1831   1.404       .  A
C1830      C1835   1.404   1_565  A
C1830      H1837   1.083   1_565  S
C1831      C1832   1.421       .  A
C1832      C1833   1.412       .  A
C1832      C1839   1.518       .  S
C1833      C1834   1.406       .  A
C1833      H1838   1.083       .  S
C1834      C1835   1.423   1_565  A
C1835      C1836   1.523       .  S
C1836      F1840   1.385       .  S
C1836      F1841   1.381       .  S
C1839      F1843   1.383       .  S
C1839      F1844   1.383       .  S
C1839      F1845   1.385       .  S
C1846      C1847   1.403       .  A
C1846      C1851   1.418       .  A
C1846      H1853   1.088       .  S
C1847      C1848   1.435       .  A
C1848      C1849   1.399       .  A
C1848      C1855   1.533       .  S
C1849      C1850   1.403       .  A
C1849      H1854   1.085       .  S
C1850      C1851   1.430       .  A
C1851      C1852   1.517       .  S
C1852      F1856   1.385       .  S
C1852      F1857   1.383       .  S
C1852      F1858   1.383   1_565  S
C1855      F1859   1.383       .  S
C1855      F1861   1.385       .  S
C1862      C1863   1.405       .  A
C1862      C1867   1.403       .  A
C1862      H1869   1.080       .  S
C1863      C1864   1.425       .  A
C1864      C1865   1.417       .  A
C1864      C2146   1.519       .  S
C1865      C1866   1.408       .  A
C1865      H1870   1.082       .  S
C1866      C1867   1.430       .  A
C1867      C1868   1.528       .  S
C1868      F1872   1.385       .  S
C1868      F1873   1.380       .  S
C1868      F1874   1.380       .  S
C1871      C2139   1.519   1_554  S
C1871      F1875   1.382       .  S
C1871      F1876   1.384       .  S
C1871      F1877   1.385       .  S
C1878      C1879   1.394       .  A
C1878      C1883   1.403       .  A
C1878      H1885   1.084       .  S
C1879      C1880   1.406       .  A
C1880      C1881   1.402       .  A
C1880      C1887   1.516       .  S
C1881      C1882   1.413       .  A
C1881      H1886   1.082       .  S
C1882      C1883   1.429       .  A
C1883      C1884   1.515       .  S
C1884      F1888   1.385       .  S
C1884      F1889   1.383       .  S
C1884      F1890   1.379       .  S
C1887      F1891   1.383       .  S
C1887      F2167   1.383       .  S
C1887      F1893   1.385       .  S
F1892      C2162   1.383   1_554  S
C1894      C1895   1.405       .  A
C1894      C1899   1.392       .  A
C1894      H1901   1.079       .  S
C1895      C1896   1.413       .  A
C1896      C1897   1.412       .  A
C1896      C1903   1.517       .  S
C1897      C1898   1.412       .  A
C1897      H1902   1.082       .  S
C1898      C1899   1.416       .  A
C1899      C1900   1.523       .  S
C1900      F1904   1.385       .  S
C1900      F1905   1.382       .  S
C1900      F1906   1.384       .  S
C1903      F1907   1.382       .  S
C1903      F1908   1.383       .  S
C1903      F1909   1.384       .  S
C1910      C1911   1.403       .  A
C1910      C1915   1.406       .  A
C1910      H1917   1.082       .  S
C1911      C1912   1.418       .  A
C1912      C1913   1.416       .  A
C1912      C1919   1.516       .  S
C1913      C1914   1.408       .  A
C1913      H1918   1.083       .  S
C1914      C1915   1.421       .  A
C1915      C1916   1.522       .  S
C1916      F1920   1.385       .  S
C1916      F1921   1.384       .  S
C1916      F1922   1.382       .  S
C1919      F1923   1.383       .  S
C1919      F1924   1.382       .  S
C1919      F1925   1.385       .  S
C1926      N1927   1.356       .  A
C1926      N1931   1.363       .  A
C1926      C2186   1.491       .  S
N1927      C1928   1.356       .  A
C1928      N1929   1.352       .  A
C1928      C2173   1.480       .  S
N1929      C1930   1.354       .  A
C1930      N1931   1.367       .  A
C1930      C1934   1.466       .  S
C1932      N1937   1.354       .  A
C1932      C2154   1.462       .  S
N1933      C1934   1.354       .  A
C1934      N1935   1.366       .  A
C1936      N1937   1.359       .  A
C1936      C2138   1.507       .  S
C1938      N1939   1.358       .  A
C1938      N1943   1.357       .  A
C1938      C2106   1.493       .  S
N1939      C1940   1.362       .  A
C1940      N1941   1.364       .  A
C1940      C1946   1.471       .  S
N1941      C1942   1.357       .  A
C1942      N1943   1.360       .  A
C1942      C2125   1.512       .  S
C1944      N1949   1.354       .  A
C1944      C2074   1.484       .  S
N1945      C1946   1.364       .  A
C1946      N1947   1.360       .  A
C1948      N1949   1.354       .  A
C1948      C2093   1.488       .  S
C1950      N1951   1.355       .  A
C1950      N1955   1.357       .  A
C1950      C2058   1.477       .  S
N1951      C1952   1.361       .  A
C1952      N1953   1.356       .  A
C1952      C2045   1.509       .  S
N1953      C1954   1.361       .  A
C1954      N1955   1.361       .  A
C1954      C1958   1.468       .  S
C1956      N1961   1.353       .  A
C1956      C2026   1.474       .  S
N1957      C1958   1.363       .  A
C1958      N1959   1.360       .  A
C1960      N1961   1.354       .  A
C1960      C2010   1.485       .  S
O1962     Mn1988   2.079       .  S
C1963      C2157   1.497       .  S
C1963      O1996   1.270       .  A
C1963      O1993   1.266       .  A
O1964     Mn1971   2.182       .  S
O1964     Mn1982   2.116       .  S
O1964     Mn1986   2.200       .  S
O1965     Mn1999   2.085       .  S
O1965      C1975   1.268       .  A
O1966     Mn1982   2.109       .  S
O1966      C1989   1.272       .  A
O1967     Mn1986   2.126       .  S
O1967      C1994   1.254       .  A
O1968     Mn1988   1.975       .  S
O1968      C1984   1.211       .  S
C1969      C2122   1.501       .  S
C1969      O1972   1.262       .  A
C1969      O1995   1.229       .  A
O1970     Mn1971   2.185       .  S
O1970     Mn2004   2.106       .  S
O1970     Mn1986   2.187       .  S
Mn1971     O1976   2.136       .  S
O1973     Mn1980   2.122       .  S
O1973      C1975   1.275       .  A
C1974      C2090   1.492       .  S
C1974      O2000   1.253       .  A
C1974      O1987   1.215       .  S
C1975      C2189   1.493       .  S
O1976      C2001   1.259       .  A
O1977     Mn1980   2.102       .  S
O1977     Mn1999   2.109       .  S
O1978     Mn1982   1.947       .  S
O1978     Mn2004   1.962       .  S
O1978      C2001   1.213       .  S
C1979      C2061   1.498       .  S
C1979      O1981   1.274       .  A
Mn1980     O1993   2.082       .  S
O1981     Mn2004   2.107       .  S
Mn1982     O1998   2.091       .  S
Mn1982     O1992   1.944       .  S
O1983     Mn1988   2.131       .  S
C1984      C2042   1.501       .  S
C1984      O2002   1.259       .  A
C1985      C2077   1.509       .  S
C1985      O1998   1.271       .  A
O1987     Mn1990   1.954       .  S
Mn1988     O2006   2.012       .  S
C1989      C2109   1.489       .  S
Mn1990     O1997   2.090       .  S
Mn1990     O2005   2.081       .  S
Mn1990     O1995   2.014       .  S
C1991      C2029   1.506       .  S
C1991      O2007   1.272       .  A
O1992     Mn2004   1.956       .  S
O1992      C1994   1.213       .  S
C1994      C2170   1.481       .  S
O1996     Mn1999   2.085       .  S
C2001      C2141   1.504       .  S
O2003      C2008   1.256       .  A
Mn2004     O2007   2.106       .  S
O2006      C2008   1.233       .  A
C2008      C2013   1.487       .  S
C2009      C2010   1.414   1_455  A
C2009      C2014   1.416       .  A
C2010      C2011   1.418       .  A
C2011      C2012   1.393       .  A
C2011      C2018   1.528       .  S
C2012      C2013   1.407       .  A
C2012      H2017   1.080       .  S
C2013      C2014   1.412   1_655  A
C2014      C2015   1.515       .  S
C2015      F2021   1.383   1_455  S
C2018      F2023   1.384       .  S
C2018      F2024   1.386       .  S
C2025      C2026   1.396       .  A
C2025      C2030   1.407       .  A
C2025      H2032   1.083       .  S
C2026      C2027   1.408   1_655  A
C2027      C2028   1.409       .  A
C2028      C2029   1.416   1_455  A
C2029      C2030   1.430       .  A
C2030      C2031   1.517       .  S
C2031      F2035   1.385       .  S
C2031      F2036   1.384       .  S
C2031      F2037   1.378       .  S
C2034      F2039   1.383       .  S
C2041      C2046   1.416       .  A
C2041      H2048   1.082       .  S
C2042      C2043   1.430       .  A
C2043      C2044   1.402       .  A
C2043      C2050   1.529       .  S
C2044      C2045   1.406       .  A
C2044      H2049   1.079       .  S
C2046      C2047   1.522       .  S
C2047      F2051   1.385       .  S
C2047      F2052   1.383       .  S
C2047      F2053   1.383       .  S
C2050      F2054   1.382   1_655  S
C2050      F2055   1.379       .  S
C2050      F2056   1.385       .  S
C2057      C2062   1.407       .  A
C2057      H2064   1.083       .  S
C2058      C2059   1.412       .  A
C2059      C2060   1.409       .  A
C2059      C2066   1.517       .  S
C2060      C2061   1.410       .  A
C2060      H2065   1.083       .  S
C2062      C2063   1.523       .  S
C2063      F2067   1.385       .  S
C2063      F2068   1.384       .  S
C2063      F2069   1.382       .  S
C2066      F2070   1.384       .  S
C2066      F2071   1.382       .  S
C2066      F2072   1.385       .  S
C2073      C2078   1.410       .  A
C2073      H2080   1.083       .  S
C2074      C2075   1.416       .  A
C2075      C2076   1.409       .  A
C2075      C2082   1.519       .  S
C2076      C2077   1.411       .  A
C2076      H2081   1.083       .  S
C2078      C2079   1.506       .  S
C2079      F2083   1.385       .  S
C2079      F2084   1.378       .  S
C2079      F2085   1.381       .  S
C2082      F2086   1.381       .  S
C2082      F2087   1.383       .  S
C2082      F2088   1.385       .  S
C2089      C2090   1.407       .  A
C2089      C2094   1.398       .  A
C2089      H2096   1.081       .  S
C2090      C2091   1.420       .  A
C2091      C2092   1.414       .  A
C2091      C2098   1.518       .  S
C2092      C2093   1.409       .  A
C2093      C2094   1.420       .  A
C2094      C2095   1.525       .  S
C2095      F2099   1.384   1_565  S
C2095      F2100   1.382       .  S
C2098      F2102   1.382       .  S
C2105      C2106   1.404       .  A
C2105      C2110   1.404   1_565  A
C2105      H2112   1.083   1_565  S
C2106      C2107   1.421       .  A
C2107      C2108   1.413       .  A
C2107      C2114   1.518       .  S
C2108      C2109   1.406       .  A
C2108      H2113   1.083       .  S
C2109      C2110   1.423   1_565  A
C2110      C2111   1.523       .  S
C2111      F2115   1.385       .  S
C2111      F2116   1.381       .  S
C2114      F2118   1.383       .  S
C2114      F2119   1.383       .  S
C2114      F2120   1.385       .  S
C2121      C2122   1.403       .  A
C2121      C2126   1.418       .  A
C2121      H2128   1.088       .  S
C2122      C2123   1.435       .  A
C2123      C2124   1.399       .  A
C2123      C2130   1.533       .  S
C2124      C2125   1.403       .  A
C2124      H2129   1.085       .  S
C2125      C2126   1.430       .  A
C2126      C2127   1.517       .  S
C2127      F2131   1.385       .  S
C2127      F2132   1.382       .  S
C2127      F2133   1.383   1_565  S
C2130      F2134   1.383       .  S
C2130      F2136   1.385       .  S
C2137      C2138   1.405       .  A
C2137      C2142   1.403       .  A
C2137      H2144   1.080       .  S
C2138      C2139   1.425       .  A
C2139      C2140   1.417       .  A
C2140      C2141   1.408       .  A
C2140      H2145   1.082       .  S
C2141      C2142   1.430       .  A
C2142      C2143   1.528       .  S
C2143      F2147   1.385       .  S
C2143      F2148   1.380       .  S
C2143      F2149   1.380       .  S
C2146      F2150   1.382       .  S
C2146      F2151   1.384       .  S
C2146      F2152   1.385       .  S
C2153      C2154   1.394       .  A
C2153      C2158   1.403       .  A
C2153      H2160   1.084       .  S
C2154      C2155   1.406       .  A
C2155      C2156   1.402       .  A
C2155      C2162   1.516       .  S
C2156      C2157   1.412       .  A
C2156      H2161   1.082       .  S
C2157      C2158   1.429       .  A
C2158      C2159   1.515       .  S
C2159      F2163   1.385       .  S
C2159      F2164   1.383       .  S
C2159      F2165   1.378       .  S
C2162      F2166   1.383       .  S
C2162      F2168   1.385       .  S
C2169      C2170   1.405       .  A
C2169      C2174   1.393       .  A
C2169      H2176   1.078       .  S
C2170      C2171   1.413       .  A
C2171      C2172   1.412       .  A
C2171      C2178   1.516       .  S
C2172      C2173   1.412       .  A
C2172      H2177   1.082       .  S
C2173      C2174   1.416       .  A
C2174      C2175   1.523       .  S
C2175      F2179   1.385       .  S
C2175      F2180   1.383       .  S
C2175      F2181   1.384       .  S
C2178      F2182   1.382       .  S
C2178      F2183   1.383       .  S
C2178      F2184   1.384       .  S
C2185      C2186   1.403       .  A
C2185      C2190   1.406       .  A
C2185      H2192   1.082       .  S
C2186      C2187   1.418       .  A
C2187      C2188   1.416       .  A
C2187      C2194   1.516       .  S
C2188      C2189   1.408       .  A
C2188      H2193   1.083       .  S
C2189      C2190   1.422       .  A
C2190      C2191   1.522       .  S
C2191      F2195   1.385       .  S
C2191      F2196   1.384       .  S
C2191      F2197   1.382       .  S
C2194      F2198   1.383       .  S
C2194      F2199   1.382       .  S
C2194      F2200   1.385       .  S
