geometry optimzed in LAMMPS
_audit_creation_date              2020-11-30 
_audit_creation_method            'lammps2cif' 
_symmetry_space_group_name_H-M    'P1' 
_symmetry_Int_Tables_number       1 
_symmetry_cell_setting            triclinic 
loop_ 
_symmetry_equiv_pos_as_xyz 
  x,y,z 
_cell_length_a                    47.99951634 
_cell_length_b                    47.993479242683065 
_cell_length_c                    93.21701749122663 
_cell_angle_alpha                 89.9459265719682 
_cell_angle_beta                  89.97648604129336 
_cell_angle_gamma                 90.21762346266506 
loop_ 
_atom_site_label 
_atom_site_type_symbol 
_atom_site_fract_x 
_atom_site_fract_y 
_atom_site_fract_z 
_atom_site_charge 
N1          N  0.30624901  0.24942037  0.65151624    -0.25600
N2          N  0.29296916  0.25033298  0.63908610    -0.33400
C3          C  0.31180599  0.25119084  0.62839892     0.02800
C4          C  0.33802651  0.25079879  0.63444723     0.08800
C5          C  0.33387433  0.24967450  0.64907360    -0.04300
H6          H  0.30674824  0.25207023  0.61709758     0.09500
H7          H  0.34968590  0.24912781  0.65733734     0.10700
Cu8        Cu  0.24989957  0.25048376  0.63716054     0.44200
Cu9        Cu  0.28643700  0.24805154  0.67126981     0.42000
Cu10       Cu  0.21119612  0.24814127  0.67057113     0.43900
N11         N  0.20672348  0.25048077  0.63830894    -0.33000
N12         N  0.19266924  0.24959573  0.65051729    -0.27200
C13         C  0.16522074  0.24994275  0.64763940    -0.03300
C14         C  0.16197625  0.25109909  0.63295870     0.08900
C15         C  0.18856185  0.25141382  0.62732318     0.02700
H16         H  0.14890588  0.24943515  0.65564948     0.10300
H17         H  0.19431955  0.25228852  0.61610786     0.09400
N18         N  0.23436089  0.24730539  0.68931222    -0.34400
N19         N  0.26191552  0.24727625  0.68957656    -0.26600
C20         C  0.27054985  0.24700132  0.70330547    -0.01800
C21         C  0.24728695  0.24684577  0.71199994     0.06800
C22         C  0.22470015  0.24704971  0.70286078     0.04900
H23         H  0.29211969  0.24707813  0.70667223     0.10000
H24         H  0.20289404  0.24717371  0.70580432     0.08800
N25         N  0.24415340  0.19172075  0.84496705    -0.25600
N26         N  0.24416037  0.20547102  0.85726456    -0.33400
C27         C  0.24421351  0.18703884  0.86815340     0.02800
C28         C  0.24423668  0.16059037  0.86236617     0.08800
C29         C  0.24419943  0.16419480  0.84769145    -0.04300
H30         H  0.24423943  0.19252176  0.87940952     0.09500
H31         H  0.24421929  0.14807531  0.83958455     0.10700
Cu32       Cu  0.24409165  0.24861504  0.85867841     0.44200
Cu33       Cu  0.24413750  0.21079442  0.82501682     0.42000
Cu34       Cu  0.24399929  0.28608012  0.82478858     0.43900
N35         N  0.24394493  0.29173489  0.85703486    -0.33000
N36         N  0.24389643  0.30534841  0.84468160    -0.27200
C37         C  0.24381502  0.33290602  0.84730273    -0.03300
C38         C  0.24380862  0.33666747  0.86196465     0.08900
C39         C  0.24389584  0.31028489  0.86785059     0.02700
H40         H  0.24378601  0.34893975  0.83913529     0.10300
H41         H  0.24393839  0.30492380  0.87912751     0.09400
N42         N  0.24424246  0.26204042  0.80632661    -0.34400
N43         N  0.24428933  0.23447710  0.80642090    -0.26600
C44         C  0.24456003  0.22517153  0.79281388    -0.01800
C45         C  0.24468380  0.24799600  0.78381435     0.06800
C46         C  0.24448219  0.27103429  0.79265139     0.04900
H47         H  0.24471604  0.20344067  0.78973687     0.10000
H48         H  0.24456338  0.29269282  0.78941871     0.08800
N49         N  0.44181827  0.24364791  0.40073768    -0.25600
N50         N  0.45578861  0.24294952  0.38850244    -0.33400
C51         C  0.43755938  0.24282984  0.37753573     0.02800
C52         C  0.41101619  0.24348044  0.38320853     0.08800
C53         C  0.41435461  0.24399183  0.39789375    -0.04300
H54         H  0.44324561  0.24240977  0.36630507     0.09500
H55         H  0.39809543  0.24466389  0.40592751     0.10700
Cu56       Cu  0.49894893  0.24249913  0.38726633     0.44200
Cu57       Cu  0.46047381  0.24435199  0.42077720     0.42000
Cu58       Cu  0.03570819  0.24403927  0.42129581     0.43900
N59         N  0.04203079  0.24270047  0.38910343    -0.33000
N60         N  0.05538615  0.24328004  0.40151706    -0.27200
C61         C  0.08299247  0.24352213  0.39903218    -0.03300
C62         C  0.08705729  0.24306526  0.38439365     0.08900
C63         C  0.06080433  0.24255672  0.37838017     0.02700
H64         H  0.09884851  0.24411680  0.40727412     0.10300
H65         H  0.05568196  0.24224364  0.36707868     0.09400
N66         N  0.01137977  0.24502122  0.43964786    -0.34400
N67         N  0.48382384  0.24514272  0.43946449    -0.26600
C68         C  0.47432952  0.24591563  0.45303938    -0.01800
C69         C  0.49703557  0.24629195  0.46210226     0.06800
C70         C  0.02018422  0.24571336  0.45334076     0.04900
H71         H  0.45256048  0.24621264  0.45605022     0.10000
H72         H  0.04179553  0.24582120  0.45663662     0.08800
N73         N  0.05631854  0.25313696  0.59435575    -0.25600
N74         N  0.04301430  0.25366070  0.60678997    -0.33400
C75         C  0.06182653  0.25363486  0.61748761     0.02800
C76         C  0.08805361  0.25307374  0.61144018     0.08800
C77         C  0.08393256  0.25276272  0.59680461    -0.04300
H78         H  0.05674526  0.25385172  0.62879648     0.09500
H79         H  0.09975396  0.25216221  0.58854074     0.10700
Cu80       Cu  0.99993933  0.25394170  0.60870965     0.44200
Cu81       Cu  0.03655264  0.25257045  0.57459720     0.42000
Cu82       Cu  0.46130583  0.25226870  0.57528760     0.43900
N83         N  0.45676277  0.25340329  0.60756504    -0.33000
N84         N  0.44273575  0.25276746  0.59535125    -0.27200
C85         C  0.41528373  0.25228844  0.59823535    -0.03300
C86         C  0.41200607  0.25264421  0.61292612     0.08900
C87         C  0.43857836  0.25334517  0.61856073     0.02700
H88         H  0.39899012  0.25161636  0.59022433     0.10300
H89         H  0.44431300  0.25366442  0.62978374     0.09400
N90         N  0.48451727  0.25157092  0.55655130    -0.34400
N91         N  0.01207271  0.25168629  0.55629664    -0.26600
C92         C  0.02075274  0.25103079  0.54257805    -0.01800
C93         C  0.49752125  0.25048400  0.53387852     0.06800
C94         C  0.47489999  0.25083920  0.54300283     0.04900
H95         H  0.04233399  0.25091489  0.53922293     0.10000
H96         H  0.45310249  0.25054384  0.54005159     0.08800
N97         N  0.24576213  0.18975955  0.15129957    -0.25600
N98         N  0.24608683  0.20339449  0.13895278    -0.33400
C99         C  0.24630332  0.18486268  0.12812983     0.02800
C100        C  0.24610245  0.15846973  0.13400300     0.08800
C101        C  0.24576301  0.16220543  0.14866590    -0.04300
H102        H  0.24658732  0.19024371  0.11685617     0.09500
H103        H  0.24554011  0.14615704  0.15682535     0.10700
Cu104      Cu  0.24621152  0.24651845  0.13731634     0.44200
Cu105      Cu  0.24535700  0.20899264  0.17120140     0.42000
Cu106      Cu  0.24539981  0.28429514  0.17096217     0.43900
N107        N  0.24618011  0.28966498  0.13872574    -0.33000
N108        N  0.24586378  0.30340300  0.15102484    -0.27200
C109        C  0.24592335  0.33093204  0.14830849    -0.03300
C110        C  0.24629427  0.33455306  0.13363593     0.08900
C111        C  0.24645123  0.30810928  0.12784219     0.02700
H112        H  0.24571891  0.34704213  0.15641930     0.10300
H113        H  0.24674011  0.30263850  0.11658566     0.09400
N114        N  0.24511161  0.26061699  0.18955575    -0.34400
N115        N  0.24509751  0.23305322  0.18965677    -0.26600
C116        C  0.24504526  0.22407579  0.20333500    -0.01800
C117        C  0.24502005  0.24712525  0.21216512     0.06800
C118        C  0.24506920  0.26993897  0.20316000     0.04900
H119        H  0.24511663  0.20242181  0.20657485     0.10000
H120        H  0.24516395  0.29167432  0.20623114     0.08800
N121        N  0.19187848  0.24574329  0.34537936    -0.25600
N122        N  0.20583708  0.24515510  0.35761360    -0.33400
C123        C  0.18758965  0.24441336  0.36857505     0.02800
C124        C  0.16104969  0.24453990  0.36289557     0.08800
C125        C  0.16440735  0.24538975  0.34821526    -0.04300
H126        H  0.19325861  0.24380440  0.37980376     0.09500
H127        H  0.14815497  0.24570350  0.34017779     0.10700
Cu128      Cu  0.24899969  0.24526941  0.35883122     0.44200
Cu129      Cu  0.21055592  0.24687064  0.32535033     0.42000
Cu130      Cu  0.28579264  0.24693848  0.32476470     0.43900
N131        N  0.29207844  0.24529400  0.35696670    -0.33000
N132        N  0.30545080  0.24590057  0.34455096    -0.27200
C133        C  0.33305559  0.24563746  0.34703335    -0.03300
C134        C  0.33709639  0.24482843  0.36167068     0.08900
C135        C  0.31083325  0.24463125  0.36768466     0.02700
H136        H  0.34892821  0.24598257  0.33878953     0.10300
H137        H  0.30569081  0.24402402  0.37898327     0.09400
N138        N  0.26141397  0.24759175  0.30642119    -0.34400
N139        N  0.23385787  0.24757027  0.30664479    -0.26600
C140        C  0.22429532  0.24783200  0.29308287    -0.01800
C141        C  0.24694870  0.24803303  0.28397809     0.06800
C142        C  0.27014906  0.24786810  0.29270555     0.04900
H143        H  0.20250917  0.24775587  0.29010743     0.10000
H144        H  0.29174241  0.24782745  0.28937059     0.08800
N145        N  0.24552819  0.05523125  0.90120560    -0.25600
N146        N  0.24440939  0.04166183  0.88886594    -0.33400
C147        C  0.24380842  0.06025011  0.87805485     0.02800
C148        C  0.24458634  0.08661168  0.88393196     0.08800
C149        C  0.24566888  0.08279729  0.89858242    -0.04300
H150        H  0.24291869  0.05492929  0.86678709     0.09500
H151        H  0.24652614  0.09879992  0.90673992     0.10700
Cu152      Cu  0.24390543  0.49854646  0.88724862     0.44200
Cu153      Cu  0.24686243  0.03587790  0.92107737     0.42000
Cu154      Cu  0.24642179  0.46058353  0.92090530     0.43900
N155        N  0.24406436  0.45540012  0.88867065    -0.33000
N156        N  0.24501925  0.44159964  0.90095635    -0.27200
C157        C  0.24502214  0.41408589  0.89822208    -0.03300
C158        C  0.24401756  0.41054441  0.88355514     0.08900
C159        C  0.24343172  0.43701563  0.87778243     0.02700
H160        H  0.24576912  0.39793202  0.90631572     0.10300
H161        H  0.24268538  0.44254790  0.86653444     0.09400
N162        N  0.24769966  0.48425379  0.93947930    -0.34400
N163        N  0.24787192  0.01181775  0.93954236    -0.26600
C164        C  0.24861502  0.02082278  0.95320065    -0.01800
C165        C  0.24892693  0.49779672  0.96206424     0.06800
C166        C  0.24832837  0.47495964  0.95309575     0.04900
H167        H  0.24881524  0.04248433  0.95640576     0.10000
H168        H  0.24826091  0.45323145  0.95620143     0.08800
N169        N  0.24767192  0.43992142  0.09479763    -0.25600
N170        N  0.24689146  0.45349811  0.10713962    -0.33400
C171        C  0.24639617  0.43491615  0.11795775     0.02800
C172        C  0.24688786  0.40855009  0.11208120     0.08800
C173        C  0.24769110  0.41235724  0.09742451    -0.04300
H174        H  0.24574697  0.44024332  0.12922865     0.09500
H175        H  0.24825955  0.39635064  0.08926489     0.10700
Cu176      Cu  0.24660082  0.49661675  0.10873023     0.44200
Cu177      Cu  0.24868059  0.45927974  0.07492093     0.42000
Cu178      Cu  0.24843753  0.03458521  0.07503192     0.43900
N179        N  0.24669749  0.03976223  0.10728221    -0.33000
N180        N  0.24739159  0.05356327  0.09498913    -0.27200
C181        C  0.24734391  0.08107932  0.09771965    -0.03300
C182        C  0.24658446  0.08461952  0.11239095     0.08900
C183        C  0.24618938  0.05814732  0.11816964     0.02700
H184        H  0.24786006  0.09723608  0.08962000     0.10300
H185        H  0.24562095  0.05261470  0.12942133     0.09400
N186        N  0.24927587  0.01085477  0.05647117    -0.34400
N187        N  0.24937212  0.48329091  0.05643404    -0.26600
C188        C  0.24976446  0.47423608  0.04278151    -0.01800
C189        C  0.24992665  0.49722782  0.03389302     0.06800
C190        C  0.24960386  0.02009822  0.04284153     0.04900
H191        H  0.24980868  0.45256232  0.03959780     0.10000
H192        H  0.24949857  0.04181353  0.03971359     0.08800
C193        C  0.24943442  0.49763676  0.97747437    -0.16800
C194        C  0.24973745  0.49752191  0.99040505     0.07300
C195        C  0.24995239  0.49741006  0.00554877     0.09100
C196        C  0.25001316  0.49732716  0.01848047    -0.17600
C197        C  0.24666322  0.38246337  0.11965139    -0.11600
C198        C  0.24649060  0.36055893  0.12599228    -0.13100
C199        C  0.24624174  0.13242702  0.12641927    -0.11600
C200        C  0.24637884  0.11057420  0.12005365    -0.13100
C201        C  0.24646072  0.24800868  0.26857017    -0.20000
C202        C  0.24602684  0.24786572  0.25564217     0.07300
C203        C  0.24555827  0.24759956  0.24050304     0.09100
C204        C  0.24524724  0.24735340  0.22757444    -0.17600
C205        C  0.38515844  0.24386916  0.37546042    -0.11600
C206        C  0.36327822  0.24428052  0.36912181    -0.13100
C207        C  0.11325458  0.24346548  0.37694507    -0.11600
C208        C  0.13516619  0.24391495  0.37062655    -0.13100
C209        C  0.49701205  0.24960537  0.51847950    -0.16800
C210        C  0.49672940  0.24884972  0.50555737     0.07300
C211        C  0.49660237  0.24795449  0.49042493     0.09100
C212        C  0.49668898  0.24719032  0.47750217    -0.17600
C213        C  0.24442438  0.11269832  0.87636414    -0.11600
C214        C  0.24432481  0.13459558  0.87001806    -0.13100
C215        C  0.24380549  0.36272503  0.86953547    -0.11600
C216        C  0.24386046  0.38458875  0.87589203    -0.13100
C217        C  0.13614978  0.25187916  0.62519218    -0.11600
C218        C  0.11426372  0.25247885  0.61886361    -0.13100
C219        C  0.36426474  0.25149883  0.62703377    -0.11600
C220        C  0.38616662  0.25206021  0.62070377    -0.13100
C221        C  0.24513680  0.24778575  0.76840457    -0.16800
C222        C  0.24558521  0.24752178  0.75547605     0.07300
C223        C  0.24617199  0.24719071  0.74033659     0.09100
C224        C  0.24669270  0.24696740  0.72740859    -0.17600
N225        N  0.30624908  0.74942042  0.65151625    -0.25600
N226        N  0.29296921  0.75033302  0.63908611    -0.33400
C227        C  0.31180600  0.75119075  0.62839892     0.02800
C228        C  0.33802652  0.75079866  0.63444722     0.08800
C229        C  0.33387442  0.74967441  0.64907360    -0.04300
H230        H  0.30674820  0.75207011  0.61709758     0.09500
H231        H  0.34968593  0.74912769  0.65733727     0.10700
Cu232      Cu  0.24989965  0.75048383  0.63716054     0.44200
Cu233      Cu  0.28643711  0.74805162  0.67126981     0.42000
Cu234      Cu  0.21119622  0.74814135  0.67057113     0.43900
N235        N  0.20672352  0.75048068  0.63830895    -0.33000
N236        N  0.19266929  0.74959572  0.65051729    -0.27200
C237        C  0.16522074  0.74994272  0.64763941    -0.03300
C238        C  0.16197628  0.75109906  0.63295871     0.08900
C239        C  0.18856189  0.75141371  0.62732319     0.02700
H240        H  0.14890601  0.74943510  0.65564943     0.10300
H241        H  0.19431959  0.75228836  0.61610786     0.09400
N242        N  0.23436099  0.74730547  0.68931222    -0.34400
N243        N  0.26191561  0.74727632  0.68957657    -0.26600
C244        C  0.27054996  0.74700135  0.70330549    -0.01800
C245        C  0.24728700  0.74684572  0.71199994     0.06800
C246        C  0.22470026  0.74704975  0.70286077     0.04900
H247        H  0.29211960  0.74707821  0.70667223     0.10000
H248        H  0.20289395  0.74717380  0.70580432     0.08800
N249        N  0.24415339  0.69172074  0.84496705    -0.25600
N250        N  0.24416039  0.70547105  0.85726455    -0.33400
C251        C  0.24421348  0.68703887  0.86815340     0.02800
C252        C  0.24423673  0.66059038  0.86236617     0.08800
C253        C  0.24419950  0.66419480  0.84769146    -0.04300
H254        H  0.24423930  0.69252183  0.87940950     0.09500
H255        H  0.24421939  0.64807528  0.83958456     0.10700
Cu256      Cu  0.24409175  0.74861509  0.85867841     0.44200
Cu257      Cu  0.24413741  0.71079432  0.82501680     0.42000
Cu258      Cu  0.24399939  0.78608003  0.82478859     0.43900
N259        N  0.24394490  0.79173492  0.85703486    -0.33000
N260        N  0.24389647  0.80534842  0.84468159    -0.27200
C261        C  0.24381496  0.83290606  0.84730272    -0.03300
C262        C  0.24380851  0.83666748  0.86196465     0.08900
C263        C  0.24389574  0.81028491  0.86785058     0.02700
H264        H  0.24378593  0.84893972  0.83913533     0.10300
H265        H  0.24393828  0.80492381  0.87912753     0.09400
N266        N  0.24424242  0.76204046  0.80632661    -0.34400
N267        N  0.24428935  0.73447714  0.80642090    -0.26600
C268        C  0.24456001  0.72517158  0.79281388    -0.01800
C269        C  0.24468383  0.74799603  0.78381435     0.06800
C270        C  0.24448212  0.77103434  0.79265139     0.04900
H271        H  0.24471592  0.70344073  0.78973687     0.10000
H272        H  0.24456325  0.79269288  0.78941870     0.08800
N273        N  0.44181820  0.74364790  0.40073769    -0.25600
N274        N  0.45578854  0.74294948  0.38850245    -0.33400
C275        C  0.43755935  0.74282988  0.37753573     0.02800
C276        C  0.41101614  0.74348048  0.38320852     0.08800
C277        C  0.41435454  0.74399177  0.39789375    -0.04300
H278        H  0.44324560  0.74240988  0.36630510     0.09500
H279        H  0.39809534  0.74466375  0.40592750     0.10700
Cu280      Cu  0.49894885  0.74249919  0.38726633     0.44200
Cu281      Cu  0.46047389  0.74435206  0.42077719     0.42000
Cu282      Cu  0.03570828  0.74403915  0.42129581     0.43900
N283        N  0.04203074  0.74270042  0.38910340    -0.33000
N284        N  0.05538607  0.74328001  0.40151702    -0.27200
C285        C  0.08299240  0.74352209  0.39903217    -0.03300
C286        C  0.08705726  0.74306531  0.38439364     0.08900
C287        C  0.06080431  0.74255676  0.37838014     0.02700
H288        H  0.09884839  0.74411670  0.40727411     0.10300
H289        H  0.05568198  0.74224374  0.36707866     0.09400
N290        N  0.01137984  0.74502124  0.43964786    -0.34400
N291        N  0.48382390  0.74514281  0.43946449    -0.26600
C292        C  0.47432955  0.74591566  0.45303939    -0.01800
C293        C  0.49703562  0.74629187  0.46210225     0.06800
C294        C  0.02018430  0.74571326  0.45334078     0.04900
H295        H  0.45256058  0.74621269  0.45605022     0.10000
H296        H  0.04179545  0.74582102  0.45663662     0.08800
N297        N  0.05631854  0.75313687  0.59435575    -0.25600
N298        N  0.04301427  0.75366060  0.60678998    -0.33400
C299        C  0.06182652  0.75363484  0.61748761     0.02800
C300        C  0.08805362  0.75307370  0.61144019     0.08800
C301        C  0.08393254  0.75276272  0.59680463    -0.04300
H302        H  0.05674524  0.75385178  0.62879650     0.09500
H303        H  0.09975405  0.75216233  0.58854070     0.10700
Cu304      Cu  0.99993928  0.75394176  0.60870965     0.44200
Cu305      Cu  0.03655273  0.75257051  0.57459720     0.42000
Cu306      Cu  0.46130576  0.75226857  0.57528759     0.43900
N307        N  0.45676278  0.75340325  0.60756505    -0.33000
N308        N  0.44273577  0.75276744  0.59535126    -0.27200
C309        C  0.41528376  0.75228838  0.59823535    -0.03300
C310        C  0.41200604  0.75264422  0.61292610     0.08900
C311        C  0.43857832  0.75334519  0.61856073     0.02700
H312        H  0.39899010  0.75161617  0.59022426     0.10300
H313        H  0.44431290  0.75366443  0.62978375     0.09400
N314        N  0.48451726  0.75157098  0.55655130    -0.34400
N315        N  0.01207277  0.75168636  0.55629664    -0.26600
C316        C  0.02075284  0.75103086  0.54257804    -0.01800
C317        C  0.49752126  0.75048407  0.53387853     0.06800
C318        C  0.47489996  0.75083927  0.54300283     0.04900
H319        H  0.04233393  0.75091497  0.53922295     0.10000
H320        H  0.45310260  0.75054389  0.54005161     0.08800
N321        N  0.24576202  0.68975955  0.15129957    -0.25600
N322        N  0.24608673  0.70339448  0.13895278    -0.33400
C323        C  0.24630322  0.68486270  0.12812983     0.02800
C324        C  0.24610238  0.65846974  0.13400300     0.08800
C325        C  0.24576292  0.66220544  0.14866589    -0.04300
H326        H  0.24658725  0.69024376  0.11685617     0.09500
H327        H  0.24554004  0.64615700  0.15682535     0.10700
Cu328      Cu  0.24621142  0.74651840  0.13731634     0.44200
Cu329      Cu  0.24535691  0.70899269  0.17120140     0.42000
Cu330      Cu  0.24539973  0.78429520  0.17096217     0.43900
N331        N  0.24618010  0.78966502  0.13872572    -0.33000
N332        N  0.24586380  0.80340304  0.15102482    -0.27200
C333        C  0.24592331  0.83093210  0.14830848    -0.03300
C334        C  0.24629421  0.83455312  0.13363592     0.08900
C335        C  0.24645124  0.80810934  0.12784217     0.02700
H336        H  0.24571884  0.84704216  0.15641928     0.10300
H337        H  0.24674015  0.80263859  0.11658565     0.09400
N338        N  0.24511167  0.76061698  0.18955574    -0.34400
N339        N  0.24509758  0.73305323  0.18965676    -0.26600
C340        C  0.24504526  0.72407572  0.20333500    -0.01800
C341        C  0.24502007  0.74712522  0.21216512     0.06800
C342        C  0.24506918  0.76993896  0.20316000     0.04900
H343        H  0.24511655  0.70242198  0.20657481     0.10000
H344        H  0.24516380  0.79167428  0.20623113     0.08800
N345        N  0.19187849  0.74574332  0.34537936    -0.25600
N346        N  0.20583710  0.74515504  0.35761360    -0.33400
C347        C  0.18758967  0.74441338  0.36857505     0.02800
C348        C  0.16104970  0.74453995  0.36289557     0.08800
C349        C  0.16440740  0.74538983  0.34821528    -0.04300
H350        H  0.19325861  0.74380442  0.37980376     0.09500
H351        H  0.14815494  0.74570359  0.34017774     0.10700
Cu352      Cu  0.24899965  0.74526928  0.35883123     0.44200
Cu353      Cu  0.21055583  0.74687071  0.32535033     0.42000
Cu354      Cu  0.28579254  0.74693855  0.32476470     0.43900
N355        N  0.29207843  0.74529406  0.35696672    -0.33000
N356        N  0.30545076  0.74590064  0.34455096    -0.27200
C357        C  0.33305555  0.74563754  0.34703335    -0.03300
C358        C  0.33709639  0.74482851  0.36167066     0.08900
C359        C  0.31083327  0.74463132  0.36768466     0.02700
H360        H  0.34892823  0.74598264  0.33878946     0.10300
H361        H  0.30569090  0.74402407  0.37898329     0.09400
N362        N  0.26141387  0.74759183  0.30642120    -0.34400
N363        N  0.23385777  0.74757034  0.30664479    -0.26600
C364        C  0.22429520  0.74783207  0.29308286    -0.01800
C365        C  0.24694864  0.74803310  0.28397809     0.06800
C366        C  0.27014898  0.74786817  0.29270555     0.04900
H367        H  0.20250921  0.74775594  0.29010743     0.10000
H368        H  0.29174234  0.74782752  0.28937060     0.08800
N369        N  0.24552827  0.55523124  0.90120560    -0.25600
N370        N  0.24440947  0.54166183  0.88886594    -0.33400
C371        C  0.24380838  0.56025011  0.87805485     0.02800
C372        C  0.24458625  0.58661167  0.88393196     0.08800
C373        C  0.24566883  0.58279726  0.89858241    -0.04300
H374        H  0.24291867  0.55492927  0.86678709     0.09500
H375        H  0.24652612  0.59880003  0.90673998     0.10700
Cu376      Cu  0.24390533  0.99854640  0.88724861     0.44200
Cu377      Cu  0.24686254  0.53587779  0.92107737     0.42000
Cu378      Cu  0.24642170  0.96058343  0.92090531     0.43900
N379        N  0.24406437  0.95540011  0.88867064    -0.33000
N380        N  0.24501924  0.94159966  0.90095634    -0.27200
C381        C  0.24502220  0.91408592  0.89822209    -0.03300
C382        C  0.24401763  0.91054441  0.88355514     0.08900
C383        C  0.24343170  0.93701561  0.87778243     0.02700
H384        H  0.24576915  0.89793208  0.90631573     0.10300
H385        H  0.24268523  0.94254787  0.86653441     0.09400
N386        N  0.24769973  0.98425381  0.93947928    -0.34400
N387        N  0.24787186  0.51181775  0.93954239    -0.26600
C388        C  0.24861508  0.52082271  0.95320066    -0.01800
C389        C  0.24892685  0.99779675  0.96206423     0.06800
C390        C  0.24832831  0.97495967  0.95309574     0.04900
H391        H  0.24881537  0.54248451  0.95640583     0.10000
H392        H  0.24826081  0.95323147  0.95620143     0.08800
N393        N  0.24767191  0.93992148  0.09479763    -0.25600
N394        N  0.24689147  0.95349815  0.10713964    -0.33400
C395        C  0.24639615  0.93491617  0.11795775     0.02800
C396        C  0.24688792  0.90855013  0.11208119     0.08800
C397        C  0.24769116  0.91235731  0.09742451    -0.04300
H398        H  0.24574682  0.94024330  0.12922868     0.09500
H399        H  0.24825958  0.89635066  0.08926484     0.10700
Cu400      Cu  0.24660073  0.99661680  0.10873023     0.44200
Cu401      Cu  0.24868050  0.95927981  0.07492093     0.42000
Cu402      Cu  0.24843744  0.53458526  0.07503191     0.43900
N403        N  0.24669743  0.53976221  0.10728222    -0.33000
N404        N  0.24739152  0.55356325  0.09498914    -0.27200
C405        C  0.24734392  0.58107927  0.09771965    -0.03300
C406        C  0.24658446  0.58461952  0.11239094     0.08900
C407        C  0.24618940  0.55814732  0.11816964     0.02700
H408        H  0.24786014  0.59723613  0.08961994     0.10300
H409        H  0.24562105  0.55261472  0.12942134     0.09400
N410        N  0.24927592  0.51085476  0.05647117    -0.34400
N411        N  0.24937202  0.98329091  0.05643403    -0.26600
C412        C  0.24976437  0.97423610  0.04278150    -0.01800
C413        C  0.24992659  0.99722785  0.03389302     0.06800
C414        C  0.24960385  0.52009823  0.04284152     0.04900
H415        H  0.24980862  0.95256235  0.03959778     0.10000
H416        H  0.24949848  0.54181337  0.03971360     0.08800
C417        C  0.24943444  0.99763681  0.97747436    -0.16800
C418        C  0.24973741  0.99752193  0.99040505     0.07300
C419        C  0.24995229  0.99741000  0.00554876     0.09100
C420        C  0.25001307  0.99732717  0.01848047    -0.17600
C421        C  0.24666315  0.88246342  0.11965138    -0.11600
C422        C  0.24649049  0.86055899  0.12599228    -0.13100
C423        C  0.24624183  0.63242703  0.12641927    -0.11600
C424        C  0.24637893  0.61057421  0.12005364    -0.13100
C425        C  0.24646073  0.74800876  0.26857017    -0.20000
C426        C  0.24602678  0.74786576  0.25564217     0.07300
C427        C  0.24555815  0.74759946  0.24050304     0.09100
C428        C  0.24524716  0.74735331  0.22757444    -0.17600
C429        C  0.38515840  0.74386922  0.37546042    -0.11600
C430        C  0.36327819  0.74428059  0.36912181    -0.13100
C431        C  0.11325457  0.74346551  0.37694507    -0.11600
C432        C  0.13516619  0.74391490  0.37062656    -0.13100
C433        C  0.49701211  0.74960544  0.51847950    -0.16800
C434        C  0.49672946  0.74884979  0.50555737     0.07300
C435        C  0.49660235  0.74795457  0.49042493     0.09100
C436        C  0.49668904  0.74719035  0.47750217    -0.17600
C437        C  0.24442440  0.61269832  0.87636414    -0.11600
C438        C  0.24432480  0.63459558  0.87001806    -0.13100
C439        C  0.24380538  0.86272503  0.86953549    -0.11600
C440        C  0.24386039  0.88458875  0.87589203    -0.13100
C441        C  0.13614978  0.75187910  0.62519221    -0.11600
C442        C  0.11426371  0.75247884  0.61886363    -0.13100
C443        C  0.36426473  0.75149881  0.62703376    -0.11600
C444        C  0.38616659  0.75206016  0.62070375    -0.13100
C445        C  0.24513672  0.74778572  0.76840457    -0.16800
C446        C  0.24558510  0.74752177  0.75547604     0.07300
C447        C  0.24617193  0.74719066  0.74033658     0.09100
C448        C  0.24669273  0.74696739  0.72740859    -0.17600
N449        N  0.80624903  0.24942037  0.65151624    -0.25600
N450        N  0.79296918  0.25033298  0.63908610    -0.33400
C451        C  0.81180599  0.25119084  0.62839892     0.02800
C452        C  0.83802651  0.25079879  0.63444722     0.08800
C453        C  0.83387437  0.24967450  0.64907361    -0.04300
H454        H  0.80674823  0.25207023  0.61709758     0.09500
H455        H  0.84968585  0.24912781  0.65733728     0.10700
Cu456      Cu  0.74989961  0.25048376  0.63716054     0.44200
Cu457      Cu  0.78643703  0.24805154  0.67126981     0.42000
Cu458      Cu  0.71119616  0.24814127  0.67057113     0.43900
N459        N  0.70672352  0.25048077  0.63830894    -0.33000
N460        N  0.69266930  0.24959573  0.65051729    -0.27200
C461        C  0.66522079  0.24994275  0.64763941    -0.03300
C462        C  0.66197628  0.25109909  0.63295872     0.08900
C463        C  0.68856188  0.25141382  0.62732319     0.02700
H464        H  0.64890594  0.24943515  0.65564949     0.10300
H465        H  0.69431956  0.25228852  0.61610786     0.09400
N466        N  0.73436092  0.24730539  0.68931222    -0.34400
N467        N  0.76191553  0.24727625  0.68957657    -0.26600
C468        C  0.77054989  0.24700132  0.70330549    -0.01800
C469        C  0.74728693  0.24684577  0.71199994     0.06800
C470        C  0.72470015  0.24704971  0.70286077     0.04900
H471        H  0.79211953  0.24707813  0.70667223     0.10000
H472        H  0.70289401  0.24717371  0.70580430     0.08800
N473        N  0.74415345  0.19172073  0.84496705    -0.25600
N474        N  0.74416036  0.20547102  0.85726456    -0.33400
C475        C  0.74421340  0.18703884  0.86815340     0.02800
C476        C  0.74423668  0.16059036  0.86236617     0.08800
C477        C  0.74419948  0.16419478  0.84769146    -0.04300
H478        H  0.74423922  0.19252176  0.87940952     0.09500
H479        H  0.74421937  0.14807530  0.83958456     0.10700
Cu480      Cu  0.74409168  0.24861504  0.85867841     0.44200
Cu481      Cu  0.74413753  0.21079425  0.82501680     0.42000
Cu482      Cu  0.74399933  0.28608012  0.82478858     0.43900
N483        N  0.74394498  0.29173489  0.85703486    -0.33000
N484        N  0.74389647  0.30534841  0.84468160    -0.27200
C485        C  0.74381505  0.33290602  0.84730273    -0.03300
C486        C  0.74380863  0.33666747  0.86196465     0.08900
C487        C  0.74389588  0.31028489  0.86785059     0.02700
H488        H  0.74378602  0.34893975  0.83913529     0.10300
H489        H  0.74393841  0.30492380  0.87912751     0.09400
N490        N  0.74424251  0.26204041  0.80632661    -0.34400
N491        N  0.74428933  0.23447708  0.80642090    -0.26600
C492        C  0.74455992  0.22517152  0.79281388    -0.01800
C493        C  0.74468378  0.24799600  0.78381435     0.06800
C494        C  0.74448223  0.27103429  0.79265140     0.04900
H495        H  0.74471580  0.20344067  0.78973686     0.10000
H496        H  0.74456342  0.29269282  0.78941871     0.08800
N497        N  0.94181822  0.24364791  0.40073769    -0.25600
N498        N  0.95578858  0.24294952  0.38850245    -0.33400
C499        C  0.93755937  0.24282984  0.37753573     0.02800
C500        C  0.91101616  0.24348044  0.38320852     0.08800
C501        C  0.91435456  0.24399183  0.39789374    -0.04300
H502        H  0.94324561  0.24240977  0.36630507     0.09500
H503        H  0.89809533  0.24466389  0.40592750     0.10700
Cu504      Cu  0.99894893  0.24249913  0.38726633     0.44200
Cu505      Cu  0.96047384  0.24435199  0.42077719     0.42000
Cu506      Cu  0.53570825  0.24403927  0.42129588     0.43900
N507        N  0.54203076  0.24270046  0.38910343    -0.33000
N508        N  0.55538611  0.24328004  0.40151707    -0.27200
C509        C  0.58299241  0.24352213  0.39903217    -0.03300
C510        C  0.58705727  0.24306526  0.38439365     0.08900
C511        C  0.56080431  0.24255672  0.37838017     0.02700
H512        H  0.59884855  0.24411680  0.40727416     0.10300
H513        H  0.55568193  0.24224364  0.36707868     0.09400
N514        N  0.51137976  0.24502122  0.43964788    -0.34400
N515        N  0.98382386  0.24514272  0.43946449    -0.26600
C516        C  0.97432953  0.24591563  0.45303939    -0.01800
C517        C  0.99703559  0.24629195  0.46210225     0.06800
C518        C  0.52018421  0.24571336  0.45334078     0.04900
H519        H  0.95256050  0.24621264  0.45605023     0.10000
H520        H  0.54179551  0.24582120  0.45663663     0.08800
N521        N  0.55631857  0.25313692  0.59435575    -0.25600
N522        N  0.54301432  0.25366057  0.60678997    -0.33400
C523        C  0.56182657  0.25363482  0.61748761     0.02800
C524        C  0.58805366  0.25307374  0.61144018     0.08800
C525        C  0.58393260  0.25276273  0.59680462    -0.04300
H526        H  0.55674530  0.25385172  0.62879648     0.09500
H527        H  0.59975400  0.25216225  0.58854074     0.10700
Cu528      Cu  0.49993932  0.25394170  0.60870965     0.44200
Cu529      Cu  0.53655268  0.25257045  0.57459720     0.42000
Cu530      Cu  0.96130585  0.25226870  0.57528761     0.43900
N531        N  0.95676278  0.25340328  0.60756505    -0.33000
N532        N  0.94273577  0.25276746  0.59535125    -0.27200
C533        C  0.91528376  0.25228844  0.59823535    -0.03300
C534        C  0.91200606  0.25264421  0.61292611     0.08900
C535        C  0.93857833  0.25334517  0.61856072     0.02700
H536        H  0.89899009  0.25161636  0.59022428     0.10300
H537        H  0.94431295  0.25366442  0.62978377     0.09400
N538        N  0.98451720  0.25157092  0.55655130    -0.34400
N539        N  0.51207277  0.25168629  0.55629664    -0.26600
C540        C  0.52075283  0.25103078  0.54257804    -0.01800
C541        C  0.99752120  0.25048400  0.53387852     0.06800
C542        C  0.97489994  0.25083920  0.54300283     0.04900
H543        H  0.54233393  0.25091489  0.53922294     0.10000
H544        H  0.95310238  0.25054384  0.54005157     0.08800
N545        N  0.74576199  0.18975955  0.15129956    -0.25600
N546        N  0.74608683  0.20339449  0.13895278    -0.33400
C547        C  0.74630337  0.18486268  0.12812983     0.02800
C548        C  0.74610246  0.15846973  0.13400300     0.08800
C549        C  0.74576288  0.16220543  0.14866590    -0.04300
H550        H  0.74658742  0.19024371  0.11685617     0.09500
H551        H  0.74553995  0.14615704  0.15682535     0.10700
Cu552      Cu  0.74621155  0.24651845  0.13731634     0.44200
Cu553      Cu  0.74535683  0.20899264  0.17120140     0.42000
Cu554      Cu  0.74539985  0.28429514  0.17096217     0.43900
N555        N  0.74618003  0.28966498  0.13872573    -0.33000
N556        N  0.74586378  0.30340300  0.15102484    -0.27200
C557        C  0.74592336  0.33093204  0.14830849    -0.03300
C558        C  0.74629420  0.33455306  0.13363593     0.08900
C559        C  0.74645118  0.30810928  0.12784219     0.02700
H560        H  0.74571899  0.34704213  0.15641930     0.10300
H561        H  0.74674016  0.30263850  0.11658566     0.09400
N562        N  0.74511165  0.26061699  0.18955575    -0.34400
N563        N  0.74509755  0.23305322  0.18965677    -0.26600
C564        C  0.74504530  0.22407579  0.20333500    -0.01800
C565        C  0.74502006  0.24712525  0.21216512     0.06800
C566        C  0.74506922  0.26993897  0.20316000     0.04900
H567        H  0.74511662  0.20242181  0.20657485     0.10000
H568        H  0.74516390  0.29167432  0.20623114     0.08800
N569        N  0.69187849  0.24574329  0.34537937    -0.25600
N570        N  0.70583712  0.24515510  0.35761360    -0.33400
C571        C  0.68758969  0.24441336  0.36857505     0.02800
C572        C  0.66104972  0.24453990  0.36289557     0.08800
C573        C  0.66440737  0.24538975  0.34821527    -0.04300
H574        H  0.69325865  0.24380440  0.37980376     0.09500
H575        H  0.64815500  0.24570350  0.34017779     0.10700
Cu576      Cu  0.74899972  0.24526941  0.35883122     0.44200
Cu577      Cu  0.71055578  0.24687064  0.32535032     0.42000
Cu578      Cu  0.78579249  0.24693848  0.32476471     0.43900
N579        N  0.79207843  0.24529400  0.35696671    -0.33000
N580        N  0.80545077  0.24590057  0.34455096    -0.27200
C581        C  0.83305554  0.24563746  0.34703336    -0.03300
C582        C  0.83709638  0.24482843  0.36167068     0.08900
C583        C  0.81083325  0.24463125  0.36768466     0.02700
H584        H  0.84892827  0.24598257  0.33878947     0.10300
H585        H  0.80569082  0.24402402  0.37898328     0.09400
N586        N  0.76141390  0.24759175  0.30642119    -0.34400
N587        N  0.73385778  0.24757027  0.30664479    -0.26600
C588        C  0.72429528  0.24783200  0.29308286    -0.01800
C589        C  0.74694868  0.24803303  0.28397809     0.06800
C590        C  0.77014901  0.24786810  0.29270556     0.04900
H591        H  0.70250910  0.24775587  0.29010739     0.10000
H592        H  0.79174243  0.24782745  0.28937060     0.08800
N593        N  0.74552824  0.05523124  0.90120560    -0.25600
N594        N  0.74440940  0.04166180  0.88886595    -0.33400
C595        C  0.74380830  0.06025006  0.87805485     0.02800
C596        C  0.74458621  0.08661164  0.88393195     0.08800
C597        C  0.74566888  0.08279727  0.89858241    -0.04300
H598        H  0.74291857  0.05492919  0.86678712     0.09500
H599        H  0.74652622  0.09879992  0.90673991     0.10700
Cu600      Cu  0.74390546  0.49854646  0.88724862     0.44200
Cu601      Cu  0.74686247  0.03587791  0.92107737     0.42000
Cu602      Cu  0.74642183  0.46058353  0.92090530     0.43900
N603        N  0.74406440  0.45540012  0.88867065    -0.33000
N604        N  0.74501929  0.44159964  0.90095635    -0.27200
C605        C  0.74502218  0.41408589  0.89822208    -0.03300
C606        C  0.74401761  0.41054441  0.88355514     0.08900
C607        C  0.74343174  0.43701563  0.87778243     0.02700
H608        H  0.74576915  0.39793202  0.90631572     0.10300
H609        H  0.74268535  0.44254790  0.86653444     0.09400
N610        N  0.74769970  0.48425379  0.93947930    -0.34400
N611        N  0.74787183  0.01181775  0.93954236    -0.26600
C612        C  0.74861501  0.02082278  0.95320065    -0.01800
C613        C  0.74892698  0.49779672  0.96206424     0.06800
C614        C  0.74832841  0.47495964  0.95309575     0.04900
H615        H  0.74881528  0.04248433  0.95640576     0.10000
H616        H  0.74826095  0.45323145  0.95620143     0.08800
N617        N  0.74767196  0.43992142  0.09479763    -0.25600
N618        N  0.74689145  0.45349811  0.10713962    -0.33400
C619        C  0.74639607  0.43491615  0.11795775     0.02800
C620        C  0.74688784  0.40855009  0.11208120     0.08800
C621        C  0.74769113  0.41235724  0.09742451    -0.04300
H622        H  0.74574672  0.44024332  0.12922865     0.09500
H623        H  0.74825951  0.39635064  0.08926489     0.10700
Cu624      Cu  0.74660066  0.49661675  0.10873023     0.44200
Cu625      Cu  0.74868043  0.45927974  0.07492092     0.42000
Cu626      Cu  0.74843757  0.03458521  0.07503192     0.43900
N627        N  0.74669753  0.03976223  0.10728221    -0.33000
N628        N  0.74739163  0.05356327  0.09498913    -0.27200
C629        C  0.74734395  0.08107932  0.09771965    -0.03300
C630        C  0.74658450  0.08461952  0.11239095     0.08900
C631        C  0.74618942  0.05814732  0.11816964     0.02700
H632        H  0.74786009  0.09723608  0.08962000     0.10300
H633        H  0.74562099  0.05261470  0.12942133     0.09400
N634        N  0.74927590  0.01085477  0.05647117    -0.34400
N635        N  0.74937198  0.48329090  0.05643404    -0.26600
C636        C  0.74976446  0.47423608  0.04278151    -0.01800
C637        C  0.74992671  0.49722782  0.03389302     0.06800
C638        C  0.74960389  0.02009822  0.04284153     0.04900
H639        H  0.74980874  0.45256232  0.03959780     0.10000
H640        H  0.74949861  0.04181353  0.03971359     0.08800
C641        C  0.74943440  0.49763676  0.97747437    -0.16800
C642        C  0.74973736  0.49752191  0.99040505     0.07300
C643        C  0.74995239  0.49741006  0.00554877     0.09100
C644        C  0.75001322  0.49732715  0.01848047    -0.17600
C645        C  0.74666312  0.38246337  0.11965139    -0.11600
C646        C  0.74649056  0.36055893  0.12599228    -0.13100
C647        C  0.74624178  0.13242702  0.12641927    -0.11600
C648        C  0.74637888  0.11057420  0.12005365    -0.13100
C649        C  0.74646075  0.24800868  0.26857017    -0.20000
C650        C  0.74602688  0.24786572  0.25564217     0.07300
C651        C  0.74555825  0.24759956  0.24050304     0.09100
C652        C  0.74524714  0.24735340  0.22757444    -0.17600
C653        C  0.88515842  0.24386916  0.37546041    -0.11600
C654        C  0.86327819  0.24428052  0.36912182    -0.13100
C655        C  0.61325458  0.24346548  0.37694507    -0.11600
C656        C  0.63516620  0.24391495  0.37062656    -0.13100
C657        C  0.99701205  0.24960537  0.51847950    -0.16800
C658        C  0.99672943  0.24884972  0.50555737     0.07300
C659        C  0.99660241  0.24795449  0.49042493     0.09100
C660        C  0.99668902  0.24719032  0.47750217    -0.17600
C661        C  0.74442439  0.11269830  0.87636413    -0.11600
C662        C  0.74432485  0.13459557  0.87001807    -0.13100
C663        C  0.74380540  0.36272503  0.86953547    -0.11600
C664        C  0.74386044  0.38458875  0.87589203    -0.13100
C665        C  0.63614979  0.25187916  0.62519222    -0.11600
C666        C  0.61426375  0.25247885  0.61886362    -0.13100
C667        C  0.86426475  0.25149883  0.62703377    -0.11600
C668        C  0.88616662  0.25206021  0.62070377    -0.13100
C669        C  0.74513670  0.24778575  0.76840457    -0.16800
C670        C  0.74558515  0.24752178  0.75547605     0.07300
C671        C  0.74617190  0.24719071  0.74033658     0.09100
C672        C  0.74669266  0.24696740  0.72740859    -0.17600
N673        N  0.80624909  0.74942042  0.65151625    -0.25600
N674        N  0.79296921  0.75033302  0.63908612    -0.33400
C675        C  0.81180598  0.75119075  0.62839893     0.02800
C676        C  0.83802650  0.75079866  0.63444721     0.08800
C677        C  0.83387442  0.74967441  0.64907360    -0.04300
H678        H  0.80674817  0.75207011  0.61709759     0.09500
H679        H  0.84968593  0.74912769  0.65733726     0.10700
Cu680      Cu  0.74989967  0.75048383  0.63716054     0.44200
Cu681      Cu  0.78643712  0.74805162  0.67126982     0.42000
Cu682      Cu  0.71119624  0.74814135  0.67057112     0.43900
N683        N  0.70672355  0.75048068  0.63830894    -0.33000
N684        N  0.69266932  0.74959572  0.65051729    -0.27200
C685        C  0.66522079  0.74994272  0.64763941    -0.03300
C686        C  0.66197628  0.75109906  0.63295871     0.08900
C687        C  0.68856190  0.75141371  0.62732318     0.02700
H688        H  0.64890599  0.74943509  0.65564947     0.10300
H689        H  0.69431960  0.75228835  0.61610788     0.09400
N690        N  0.73436088  0.74730547  0.68931222    -0.34400
N691        N  0.76191550  0.74727632  0.68957657    -0.26600
C692        C  0.77054980  0.74700135  0.70330547    -0.01800
C693        C  0.74728689  0.74684572  0.71199994     0.06800
C694        C  0.72470010  0.74704975  0.70286078     0.04900
H695        H  0.79211963  0.74707821  0.70667224     0.10000
H696        H  0.70289399  0.74717380  0.70580431     0.08800
N697        N  0.74415339  0.69172074  0.84496705    -0.25600
N698        N  0.74416044  0.70547105  0.85726455    -0.33400
C699        C  0.74421349  0.68703887  0.86815340     0.02800
C700        C  0.74423660  0.66059038  0.86236617     0.08800
C701        C  0.74419938  0.66419480  0.84769146    -0.04300
H702        H  0.74423939  0.69252183  0.87940950     0.09500
H703        H  0.74421927  0.64807528  0.83958456     0.10700
Cu704      Cu  0.74409179  0.74861509  0.85867841     0.44200
Cu705      Cu  0.74413744  0.71079432  0.82501680     0.42000
Cu706      Cu  0.74399923  0.78608003  0.82478859     0.43900
N707        N  0.74394489  0.79173492  0.85703486    -0.33000
N708        N  0.74389637  0.80534842  0.84468159    -0.27200
C709        C  0.74381495  0.83290606  0.84730272    -0.03300
C710        C  0.74380856  0.83666748  0.86196465     0.08900
C711        C  0.74389578  0.81028491  0.86785058     0.02700
H712        H  0.74378594  0.84893972  0.83913533     0.10300
H713        H  0.74393836  0.80492381  0.87912753     0.09400
N714        N  0.74424244  0.76204046  0.80632661    -0.34400
N715        N  0.74428939  0.73447714  0.80642090    -0.26600
C716        C  0.74456005  0.72517158  0.79281388    -0.01800
C717        C  0.74468387  0.74799603  0.78381435     0.06800
C718        C  0.74448216  0.77103434  0.79265139     0.04900
H719        H  0.74471596  0.70344073  0.78973687     0.10000
H720        H  0.74456326  0.79269288  0.78941870     0.08800
N721        N  0.94181822  0.74364790  0.40073769    -0.25600
N722        N  0.95578857  0.74294948  0.38850245    -0.33400
C723        C  0.93755939  0.74282988  0.37753573     0.02800
C724        C  0.91101618  0.74348048  0.38320852     0.08800
C725        C  0.91435457  0.74399177  0.39789374    -0.04300
H726        H  0.94324564  0.74240988  0.36630510     0.09500
H727        H  0.89809537  0.74466375  0.40592749     0.10700
Cu728      Cu  0.99894888  0.74249919  0.38726633     0.44200
Cu729      Cu  0.96047377  0.74435206  0.42077720     0.42000
Cu730      Cu  0.53570830  0.74403915  0.42129582     0.43900
N731        N  0.54203072  0.74270042  0.38910341    -0.33000
N732        N  0.55538609  0.74328001  0.40151703    -0.27200
C733        C  0.58299241  0.74352209  0.39903216    -0.03300
C734        C  0.58705723  0.74306531  0.38439363     0.08900
C735        C  0.56080427  0.74255676  0.37838014     0.02700
H736        H  0.59884843  0.74411670  0.40727410     0.10300
H737        H  0.55568192  0.74224374  0.36707866     0.09400
N738        N  0.51137980  0.74502124  0.43964786    -0.34400
N739        N  0.98382392  0.74514281  0.43946448    -0.26600
C740        C  0.97432958  0.74591566  0.45303937    -0.01800
C741        C  0.99703562  0.74629187  0.46210225     0.06800
C742        C  0.52018429  0.74571326  0.45334077     0.04900
H743        H  0.95256059  0.74621269  0.45605020     0.10000
H744        H  0.54179540  0.74582102  0.45663658     0.08800
N745        N  0.55631853  0.75313687  0.59435576    -0.25600
N746        N  0.54301429  0.75366060  0.60678998    -0.33400
C747        C  0.56182655  0.75363484  0.61748761     0.02800
C748        C  0.58805362  0.75307370  0.61144018     0.08800
C749        C  0.58393255  0.75276272  0.59680461    -0.04300
H750        H  0.55674530  0.75385178  0.62879650     0.09500
H751        H  0.59975392  0.75216234  0.58854073     0.10700
Cu752      Cu  0.49993936  0.75394176  0.60870965     0.44200
Cu753      Cu  0.53655276  0.75257051  0.57459719     0.42000
Cu754      Cu  0.96130579  0.75226857  0.57528760     0.43900
N755        N  0.95676278  0.75340325  0.60756505    -0.33000
N756        N  0.94273578  0.75276744  0.59535126    -0.27200
C757        C  0.91528379  0.75228838  0.59823535    -0.03300
C758        C  0.91200605  0.75264422  0.61292611     0.08900
C759        C  0.93857833  0.75334519  0.61856073     0.02700
H760        H  0.89899013  0.75161617  0.59022426     0.10300
H761        H  0.94431293  0.75366443  0.62978375     0.09400
N762        N  0.98451727  0.75157098  0.55655130    -0.34400
N763        N  0.51207276  0.75168636  0.55629664    -0.26600
C764        C  0.52075283  0.75103086  0.54257804    -0.01800
C765        C  0.99752127  0.75048407  0.53387852     0.06800
C766        C  0.97489997  0.75083927  0.54300282     0.04900
H767        H  0.54233391  0.75091497  0.53922295     0.10000
H768        H  0.95310261  0.75054389  0.54005161     0.08800
N769        N  0.74576207  0.68975955  0.15129957    -0.25600
N770        N  0.74608677  0.70339448  0.13895278    -0.33400
C771        C  0.74630326  0.68486270  0.12812983     0.02800
C772        C  0.74610239  0.65846974  0.13400300     0.08800
C773        C  0.74576295  0.66220544  0.14866589    -0.04300
H774        H  0.74658726  0.69024376  0.11685617     0.09500
H775        H  0.74554005  0.64615700  0.15682535     0.10700
Cu776      Cu  0.74621146  0.74651840  0.13731634     0.44200
Cu777      Cu  0.74535695  0.70899269  0.17120140     0.42000
Cu778      Cu  0.74539977  0.78429520  0.17096217     0.43900
N779        N  0.74618014  0.78966502  0.13872572    -0.33000
N780        N  0.74586384  0.80340304  0.15102482    -0.27200
C781        C  0.74592333  0.83093209  0.14830848    -0.03300
C782        C  0.74629425  0.83455312  0.13363592     0.08900
C783        C  0.74645128  0.80810934  0.12784217     0.02700
H784        H  0.74571881  0.84704216  0.15641928     0.10300
H785        H  0.74674019  0.80263859  0.11658565     0.09400
N786        N  0.74511172  0.76061698  0.18955574    -0.34400
N787        N  0.74509763  0.73305323  0.18965676    -0.26600
C788        C  0.74504526  0.72407572  0.20333500    -0.01800
C789        C  0.74501998  0.74712522  0.21216512     0.06800
C790        C  0.74506918  0.76993896  0.20316000     0.04900
H791        H  0.74511660  0.70242198  0.20657481     0.10000
H792        H  0.74516385  0.79167428  0.20623113     0.08800
N793        N  0.69187842  0.74574332  0.34537936    -0.25600
N794        N  0.70583703  0.74515504  0.35761360    -0.33400
C795        C  0.68758959  0.74441338  0.36857505     0.02800
C796        C  0.66104963  0.74453995  0.36289557     0.08800
C797        C  0.66440729  0.74538983  0.34821526    -0.04300
H798        H  0.69325855  0.74380442  0.37980376     0.09500
H799        H  0.64815491  0.74570359  0.34017779     0.10700
Cu800      Cu  0.74899964  0.74526928  0.35883123     0.44200
Cu801      Cu  0.71055586  0.74687071  0.32535033     0.42000
Cu802      Cu  0.78579258  0.74693855  0.32476470     0.43900
N803        N  0.79207843  0.74529406  0.35696672    -0.33000
N804        N  0.80545077  0.74590064  0.34455097    -0.27200
C805        C  0.83305557  0.74563754  0.34703334    -0.03300
C806        C  0.83709640  0.74482851  0.36167066     0.08900
C807        C  0.81083328  0.74463132  0.36768466     0.02700
H808        H  0.84892818  0.74598264  0.33878950     0.10300
H809        H  0.80569090  0.74402407  0.37898329     0.09400
N810        N  0.76141391  0.74759183  0.30642119    -0.34400
N811        N  0.73385781  0.74757034  0.30664479    -0.26600
C812        C  0.72429522  0.74783207  0.29308286    -0.01800
C813        C  0.74694864  0.74803310  0.28397809     0.06800
C814        C  0.77014900  0.74786817  0.29270554     0.04900
H815        H  0.70250924  0.74775594  0.29010745     0.10000
H816        H  0.79174236  0.74782752  0.28937059     0.08800
N817        N  0.74552830  0.55523124  0.90120560    -0.25600
N818        N  0.74440952  0.54166183  0.88886594    -0.33400
C819        C  0.74380841  0.56025011  0.87805485     0.02800
C820        C  0.74458630  0.58661167  0.88393196     0.08800
C821        C  0.74566886  0.58279726  0.89858241    -0.04300
H822        H  0.74291865  0.55492927  0.86678709     0.09500
H823        H  0.74652607  0.59880002  0.90673998     0.10700
Cu824      Cu  0.74390536  0.99854639  0.88724862     0.44200
Cu825      Cu  0.74686238  0.53587779  0.92107737     0.42000
Cu826      Cu  0.74642173  0.96058343  0.92090531     0.43900
N827        N  0.74406429  0.95540011  0.88867064    -0.33000
N828        N  0.74501919  0.94159966  0.90095634    -0.27200
C829        C  0.74502212  0.91408592  0.89822209    -0.03300
C830        C  0.74401763  0.91054441  0.88355514     0.08900
C831        C  0.74343170  0.93701561  0.87778243     0.02700
H832        H  0.74576904  0.89793207  0.90631573     0.10300
H833        H  0.74268530  0.94254787  0.86653441     0.09400
N834        N  0.74769972  0.98425381  0.93947928    -0.34400
N835        N  0.74787188  0.51181775  0.93954239    -0.26600
C836        C  0.74861512  0.52082271  0.95320066    -0.01800
C837        C  0.74892690  0.99779675  0.96206423     0.06800
C838        C  0.74832836  0.97495967  0.95309574     0.04900
H839        H  0.74881538  0.54248451  0.95640583     0.10000
H840        H  0.74826088  0.95323147  0.95620143     0.08800
N841        N  0.74767194  0.93992148  0.09479763    -0.25600
N842        N  0.74689151  0.95349815  0.10713964    -0.33400
C843        C  0.74639619  0.93491617  0.11795775     0.02800
C844        C  0.74688796  0.90855013  0.11208119     0.08800
C845        C  0.74769120  0.91235731  0.09742451    -0.04300
H846        H  0.74574686  0.94024330  0.12922868     0.09500
H847        H  0.74825962  0.89635066  0.08926484     0.10700
Cu848      Cu  0.74660077  0.99661680  0.10873023     0.44200
Cu849      Cu  0.74868053  0.95927981  0.07492093     0.42000
Cu850      Cu  0.74843747  0.53458526  0.07503191     0.43900
N851        N  0.74669742  0.53976221  0.10728222    -0.33000
N852        N  0.74739157  0.55356325  0.09498914    -0.27200
C853        C  0.74734397  0.58107927  0.09771965    -0.03300
C854        C  0.74658444  0.58461952  0.11239094     0.08900
C855        C  0.74618931  0.55814732  0.11816964     0.02700
H856        H  0.74786018  0.59723614  0.08961994     0.10300
H857        H  0.74562086  0.55261472  0.12942133     0.09400
N858        N  0.74927579  0.51085476  0.05647117    -0.34400
N859        N  0.74937205  0.98329091  0.05643403    -0.26600
C860        C  0.74976441  0.97423610  0.04278150    -0.01800
C861        C  0.74992663  0.99722785  0.03389302     0.06800
C862        C  0.74960383  0.52009823  0.04284152     0.04900
H863        H  0.74980866  0.95256235  0.03959778     0.10000
H864        H  0.74949849  0.54181337  0.03971360     0.08800
C865        C  0.74943448  0.99763681  0.97747436    -0.16800
C866        C  0.74973745  0.99752193  0.99040505     0.07300
C867        C  0.74995232  0.99741000  0.00554876     0.09100
C868        C  0.75001311  0.99732717  0.01848047    -0.17600
C869        C  0.74666319  0.88246342  0.11965138    -0.11600
C870        C  0.74649053  0.86055899  0.12599228    -0.13100
C871        C  0.74624168  0.63242703  0.12641927    -0.11600
C872        C  0.74637878  0.61057421  0.12005364    -0.13100
C873        C  0.74646067  0.74800876  0.26857017    -0.20000
C874        C  0.74602678  0.74786576  0.25564217     0.07300
C875        C  0.74555820  0.74759946  0.24050304     0.09100
C876        C  0.74524717  0.74735331  0.22757444    -0.17600
C877        C  0.88515843  0.74386922  0.37546042    -0.11600
C878        C  0.86327822  0.74428059  0.36912180    -0.13100
C879        C  0.61325453  0.74346550  0.37694507    -0.11600
C880        C  0.63516613  0.74391490  0.37062655    -0.13100
C881        C  0.99701210  0.74960544  0.51847950    -0.16800
C882        C  0.99672938  0.74884979  0.50555737     0.07300
C883        C  0.99660230  0.74795456  0.49042493     0.09100
C884        C  0.99668897  0.74719035  0.47750217    -0.17600
C885        C  0.74442444  0.61269832  0.87636414    -0.11600
C886        C  0.74432480  0.63459558  0.87001806    -0.13100
C887        C  0.74380543  0.86272503  0.86953549    -0.11600
C888        C  0.74386043  0.88458875  0.87589203    -0.13100
C889        C  0.63614976  0.75187910  0.62519222    -0.11600
C890        C  0.61426371  0.75247884  0.61886363    -0.13100
C891        C  0.86426471  0.75149881  0.62703375    -0.11600
C892        C  0.88616659  0.75206016  0.62070375    -0.13100
C893        C  0.74513676  0.74778572  0.76840457    -0.16800
C894        C  0.74558514  0.74752177  0.75547605     0.07300
C895        C  0.74617193  0.74719066  0.74033658     0.09100
C896        C  0.74669264  0.74696739  0.72740859    -0.17600
loop_ 
_geom_bond_atom_site_label_1 
_geom_bond_atom_site_label_2 
_geom_bond_distance 
_geom_bond_site_symmetry_2 
_ccdc_geom_bond_type 
N1            N2   1.323       .  A
N1            C5   1.345       .  A
N1           Cu9   2.073       .  S
N2            C3   1.346       .  A
N2           Cu8   2.075       .  S
C3            C4   1.379       .  A
C3            H6   1.082       .  S
C4            C5   1.379       .  A
C4          C219   1.437       .  S
C5            H7   1.082       .  S
Cu8          N11   2.075       .  S
Cu9          N19   2.073       .  S
Cu10         N12   2.072       .  S
Cu10         N18   2.072       .  S
N11          N12   1.323       .  A
N11          C15   1.346       .  A
N12          C13   1.345       .  A
C13          C14   1.378       .  A
C13          H16   1.082       .  S
C14          C15   1.380       .  A
C14         C217   1.436       .  S
C15          H17   1.082       .  S
N18          N19   1.323       .  A
N18          C22   1.345       .  A
N19          C20   1.345       .  A
C20          C21   1.379       .  A
C20          H23   1.082       .  S
C21          C22   1.379       .  A
C21         C224   1.437       .  S
C22          H24   1.082       .  S
N25          N26   1.323       .  A
N25          C29   1.345       .  A
N25         Cu33   2.072       .  S
N26          C27   1.346       .  A
N26         Cu32   2.075       .  S
C27          C28   1.380       .  A
C27          H30   1.082       .  S
C28          C29   1.379       .  A
C28         C214   1.437       .  S
C29          H31   1.082       .  S
Cu32         N35   2.075       .  S
Cu33         N43   2.072       .  S
Cu34         N36   2.073       .  S
Cu34         N42   2.073       .  S
N35          N36   1.323       .  A
N35          C39   1.346       .  A
N36          C37   1.345       .  A
C37          C38   1.379       .  A
C37          H40   1.082       .  S
C38          C39   1.380       .  A
C38         C215   1.437       .  S
C39          H41   1.082       .  S
N42          N43   1.323       .  A
N42          C46   1.346       .  A
N43          C44   1.345       .  A
C44          C45   1.379       .  A
C44          H47   1.082       .  S
C45          C46   1.379       .  A
C45         C221   1.437       .  S
C46          H48   1.082       .  S
N49          N50   1.323       .  A
N49          C53   1.345       .  A
N49         Cu57   2.072       .  S
N50          C51   1.346       .  A
N50         Cu56   2.075       .  S
C51          C52   1.380       .  A
C51          H54   1.082       .  S
C52          C53   1.379       .  A
C52         C205   1.436       .  S
C53          H55   1.082       .  S
Cu56        N507   2.075       .  S
Cu57         N67   2.072       .  S
Cu58         N60   2.072       .  S
Cu58         N66   2.072       .  S
N59          N60   1.323       .  A
N59          C63   1.346       .  A
N59        Cu504   2.075   1_455  S
N60          C61   1.345       .  A
C61          C62   1.379       .  A
C61          H64   1.082       .  S
C62          C63   1.380       .  A
C62         C207   1.436       .  S
C63          H65   1.082       .  S
N66         N515   1.323   1_455  A
N66          C70   1.345       .  A
N67         N514   1.323       .  A
N67          C68   1.345       .  A
C68          C69   1.379       .  A
C68          H71   1.082       .  S
C69         C518   1.379       .  A
C69         C212   1.436       .  S
C70         C517   1.379   1_455  A
C70          H72   1.082       .  S
N73          N74   1.323       .  A
N73          C77   1.345       .  A
N73         Cu81   2.072       .  S
N74          C75   1.346       .  A
N74         Cu80   2.075   1_455  S
C75          C76   1.379       .  A
C75          H78   1.082       .  S
C76          C77   1.379       .  A
C76         C218   1.436       .  S
C77          H79   1.082       .  S
Cu80        N531   2.075       .  S
Cu81         N91   2.072       .  S
Cu82         N84   2.072       .  S
Cu82         N90   2.072       .  S
N83          N84   1.323       .  A
N83          C87   1.346       .  A
N83        Cu528   2.075       .  S
N84          C85   1.345       .  A
C85          C86   1.379       .  A
C85          H88   1.082       .  S
C86          C87   1.380       .  A
C86         C220   1.437       .  S
C87          H89   1.082       .  S
N90         N539   1.323       .  A
N90          C94   1.345       .  A
N91         N538   1.323   1_455  A
N91          C92   1.345       .  A
C92         C541   1.379   1_455  A
C92          H95   1.082       .  S
C93          C94   1.379       .  A
C93         C540   1.379       .  A
C93         C209   1.436       .  S
C94          H96   1.082       .  S
N97          N98   1.323       .  A
N97         C101   1.345       .  A
N97        Cu105   2.073       .  S
N98          C99   1.346       .  A
N98        Cu104   2.075       .  S
C99         C100   1.379       .  A
C99         H102   1.082       .  S
C100        C101   1.379       .  A
C100        C199   1.437       .  S
C101        H103   1.082       .  S
Cu104       N107   2.075       .  S
Cu105       N115   2.073       .  S
Cu106       N108   2.072       .  S
Cu106       N114   2.072       .  S
N107        N108   1.323       .  A
N107        C111   1.346       .  A
N108        C109   1.345       .  A
C109        C110   1.379       .  A
C109        H112   1.082       .  S
C110        C111   1.380       .  A
C110        C198   1.437       .  S
C111        H113   1.082       .  S
N114        N115   1.323       .  A
N114        C118   1.345       .  A
N115        C116   1.345       .  A
C116        C117   1.379       .  A
C116        H119   1.082       .  S
C117        C118   1.379       .  A
C117        C204   1.437       .  S
C118        H120   1.082       .  S
N121        N122   1.323       .  A
N121        C125   1.345       .  A
N121       Cu129   2.071       .  S
N122        C123   1.346       .  A
N122       Cu128   2.075       .  S
C123        C124   1.380       .  A
C123        H126   1.082       .  S
C124        C125   1.378       .  A
C124        C208   1.436       .  S
C125        H127   1.082       .  S
Cu128       N131   2.075       .  S
Cu129       N139   2.071       .  S
Cu130       N132   2.073       .  S
Cu130       N138   2.073       .  S
N131        N132   1.323       .  A
N131        C135   1.346       .  A
N132        C133   1.345       .  A
C133        C134   1.379       .  A
C133        H136   1.082       .  S
C134        C135   1.379       .  A
C134        C206   1.436       .  S
C135        H137   1.082       .  S
N138        N139   1.323       .  A
N138        C142   1.345       .  A
N139        C140   1.345       .  A
C140        C141   1.379       .  A
C140        H143   1.082       .  S
C141        C142   1.379       .  A
C141        C201   1.436       .  S
C142        H144   1.082       .  S
N145        N146   1.323       .  A
N145        C149   1.345       .  A
N145       Cu153   2.073       .  S
N146        C147   1.346       .  A
N146       Cu376   2.075   1_545  S
C147        C148   1.380       .  A
C147        H150   1.082       .  S
C148        C149   1.379       .  A
C148        C213   1.437       .  S
C149        H151   1.082       .  S
Cu152       N155   2.075       .  S
Cu152       N370   2.075       .  S
Cu153       N163   2.072       .  S
Cu154       N156   2.073       .  S
Cu154       N162   2.073       .  S
N155        N156   1.323       .  A
N155        C159   1.346       .  A
N156        C157   1.345       .  A
C157        C158   1.379       .  A
C157        H160   1.082       .  S
C158        C159   1.380       .  A
C158        C216   1.437       .  S
C159        H161   1.082       .  S
N162        N387   1.323       .  A
N162        C166   1.345       .  A
N163        N386   1.323   1_545  A
N163        C164   1.345       .  A
C164        C389   1.379   1_545  A
C164        H167   1.082       .  S
C165        C166   1.379       .  A
C165        C388   1.379       .  A
C165        C193   1.437       .  S
C166        H168   1.082       .  S
N169        N170   1.323       .  A
N169        C173   1.345       .  A
N169       Cu177   2.072       .  S
N170        C171   1.346       .  A
N170       Cu176   2.075       .  S
C171        C172   1.380       .  A
C171        H174   1.082       .  S
C172        C173   1.379       .  A
C172        C197   1.437       .  S
C173        H175   1.082       .  S
Cu176       N403   2.075       .  S
Cu177       N187   2.072       .  S
Cu178       N180   2.073       .  S
Cu178       N186   2.073       .  S
N179        N180   1.323       .  A
N179        C183   1.346       .  A
N179       Cu400   2.075   1_545  S
N180        C181   1.345       .  A
C181        C182   1.379       .  A
C181        H184   1.082       .  S
C182        C183   1.380       .  A
C182        C200   1.437       .  S
C183        H185   1.082       .  S
N186        N411   1.323   1_545  A
N186        C190   1.345       .  A
N187        N410   1.323       .  A
N187        C188   1.345       .  A
C188        C189   1.379       .  A
C188        H191   1.082       .  S
C189        C414   1.379       .  A
C189        C196   1.437       .  S
C190        C413   1.379   1_545  A
C190        H192   1.082       .  S
C193        C194   1.205       .  T
C194        C195   1.412   1_556  S
C195        C196   1.205       .  T
C197        C198   1.206       .  T
C199        C200   1.206       .  T
C201        C202   1.205       .  T
C202        C203   1.411       .  S
C203        C204   1.205       .  T
C205        C206   1.205       .  T
C207        C208   1.205       .  T
C209        C210   1.205       .  T
C210        C211   1.411       .  S
C211        C212   1.205       .  T
C213        C214   1.206       .  T
C215        C216   1.206       .  T
C217        C218   1.205       .  T
C219        C220   1.206       .  T
C221        C222   1.205       .  T
C222        C223   1.412       .  S
C223        C224   1.205       .  T
N225        N226   1.323       .  A
N225        C229   1.345       .  A
N225       Cu233   2.073       .  S
N226        C227   1.346       .  A
N226       Cu232   2.075       .  S
C227        C228   1.379       .  A
C227        H230   1.082       .  S
C228        C229   1.379       .  A
C228        C443   1.437       .  S
C229        H231   1.082       .  S
Cu232       N235   2.075       .  S
Cu233       N243   2.073       .  S
Cu234       N236   2.072       .  S
Cu234       N242   2.072       .  S
N235        N236   1.323       .  A
N235        C239   1.346       .  A
N236        C237   1.345       .  A
C237        C238   1.378       .  A
C237        H240   1.082       .  S
C238        C239   1.380       .  A
C238        C441   1.436       .  S
C239        H241   1.082       .  S
N242        N243   1.323       .  A
N242        C246   1.345       .  A
N243        C244   1.345       .  A
C244        C245   1.379       .  A
C244        H247   1.082       .  S
C245        C246   1.379       .  A
C245        C448   1.437       .  S
C246        H248   1.082       .  S
N249        N250   1.323       .  A
N249        C253   1.345       .  A
N249       Cu257   2.072       .  S
N250        C251   1.346       .  A
N250       Cu256   2.075       .  S
C251        C252   1.380       .  A
C251        H254   1.082       .  S
C252        C253   1.379       .  A
C252        C438   1.437       .  S
C253        H255   1.082       .  S
Cu256       N259   2.075       .  S
Cu257       N267   2.072       .  S
Cu258       N260   2.073       .  S
Cu258       N266   2.073       .  S
N259        N260   1.323       .  A
N259        C263   1.346       .  A
N260        C261   1.345       .  A
C261        C262   1.379       .  A
C261        H264   1.082       .  S
C262        C263   1.380       .  A
C262        C439   1.437       .  S
C263        H265   1.082       .  S
N266        N267   1.323       .  A
N266        C270   1.346       .  A
N267        C268   1.345       .  A
C268        C269   1.379       .  A
C268        H271   1.082       .  S
C269        C270   1.379       .  A
C269        C445   1.437       .  S
C270        H272   1.082       .  S
N273        N274   1.323       .  A
N273        C277   1.345       .  A
N273       Cu281   2.072       .  S
N274        C275   1.346       .  A
N274       Cu280   2.075       .  S
C275        C276   1.380       .  A
C275        H278   1.082       .  S
C276        C277   1.379       .  A
C276        C429   1.436       .  S
C277        H279   1.082       .  S
Cu280       N731   2.075       .  S
Cu281       N291   2.072       .  S
Cu282       N284   2.072       .  S
Cu282       N290   2.072       .  S
N283        N284   1.323       .  A
N283        C287   1.346       .  A
N283       Cu728   2.075   1_455  S
N284        C285   1.345       .  A
C285        C286   1.379       .  A
C285        H288   1.082       .  S
C286        C287   1.380       .  A
C286        C431   1.436       .  S
C287        H289   1.082       .  S
N290        N739   1.323   1_455  A
N290        C294   1.345       .  A
N291        N738   1.323       .  A
N291        C292   1.345       .  A
C292        C293   1.379       .  A
C292        H295   1.082       .  S
C293        C742   1.379       .  A
C293        C436   1.436       .  S
C294        C741   1.379   1_455  A
C294        H296   1.082       .  S
N297        N298   1.323       .  A
N297        C301   1.345       .  A
N297       Cu305   2.072       .  S
N298        C299   1.346       .  A
N298       Cu304   2.075   1_455  S
C299        C300   1.379       .  A
C299        H302   1.082       .  S
C300        C301   1.379       .  A
C300        C442   1.436       .  S
C301        H303   1.082       .  S
Cu304       N755   2.075       .  S
Cu305       N315   2.072       .  S
Cu306       N308   2.072       .  S
Cu306       N314   2.072       .  S
N307        N308   1.323       .  A
N307        C311   1.346       .  A
N307       Cu752   2.075       .  S
N308        C309   1.345       .  A
C309        C310   1.379       .  A
C309        H312   1.082       .  S
C310        C311   1.380       .  A
C310        C444   1.437       .  S
C311        H313   1.082       .  S
N314        N763   1.323       .  A
N314        C318   1.345       .  A
N315        N762   1.323   1_455  A
N315        C316   1.345       .  A
C316        C765   1.379   1_455  A
C316        H319   1.082       .  S
C317        C764   1.379       .  A
C317        C318   1.379       .  A
C317        C433   1.436       .  S
C318        H320   1.082       .  S
N321        N322   1.323       .  A
N321        C325   1.345       .  A
N321       Cu329   2.073       .  S
N322        C323   1.346       .  A
N322       Cu328   2.075       .  S
C323        C324   1.379       .  A
C323        H326   1.082       .  S
C324        C325   1.379       .  A
C324        C423   1.437       .  S
C325        H327   1.082       .  S
Cu328       N331   2.075       .  S
Cu329       N339   2.073       .  S
Cu330       N332   2.072       .  S
Cu330       N338   2.072       .  S
N331        N332   1.323       .  A
N331        C335   1.346       .  A
N332        C333   1.345       .  A
C333        C334   1.379       .  A
C333        H336   1.082       .  S
C334        C335   1.380       .  A
C334        C422   1.437       .  S
C335        H337   1.082       .  S
N338        N339   1.323       .  A
N338        C342   1.345       .  A
N339        C340   1.345       .  A
C340        C341   1.379       .  A
C340        H343   1.082       .  S
C341        C342   1.379       .  A
C341        C428   1.437       .  S
C342        H344   1.082       .  S
N345        N346   1.323       .  A
N345        C349   1.345       .  A
N345       Cu353   2.071       .  S
N346        C347   1.346       .  A
N346       Cu352   2.075       .  S
C347        C348   1.380       .  A
C347        H350   1.082       .  S
C348        C349   1.378       .  A
C348        C432   1.436       .  S
C349        H351   1.082       .  S
Cu352       N355   2.075       .  S
Cu353       N363   2.071       .  S
Cu354       N356   2.073       .  S
Cu354       N362   2.073       .  S
N355        N356   1.323       .  A
N355        C359   1.346       .  A
N356        C357   1.345       .  A
C357        C358   1.379       .  A
C357        H360   1.082       .  S
C358        C359   1.379       .  A
C358        C430   1.436       .  S
C359        H361   1.082       .  S
N362        N363   1.323       .  A
N362        C366   1.345       .  A
N363        C364   1.345       .  A
C364        C365   1.379       .  A
C364        H367   1.082       .  S
C365        C366   1.379       .  A
C365        C425   1.436       .  S
C366        H368   1.082       .  S
N369        N370   1.323       .  A
N369        C373   1.345       .  A
N369       Cu377   2.073       .  S
N370        C371   1.346       .  A
C371        C372   1.380       .  A
C371        H374   1.082       .  S
C372        C373   1.379       .  A
C372        C437   1.437       .  S
C373        H375   1.082       .  S
Cu376       N379   2.075       .  S
Cu377       N387   2.072       .  S
Cu378       N380   2.073       .  S
Cu378       N386   2.073       .  S
N379        N380   1.323       .  A
N379        C383   1.346       .  A
N380        C381   1.345       .  A
C381        C382   1.379       .  A
C381        H384   1.082       .  S
C382        C383   1.380       .  A
C382        C440   1.437       .  S
C383        H385   1.082       .  S
N386        C390   1.345       .  A
N387        C388   1.345       .  A
C388        H391   1.082       .  S
C389        C390   1.379       .  A
C389        C417   1.437       .  S
C390        H392   1.082       .  S
N393        N394   1.323       .  A
N393        C397   1.345       .  A
N393       Cu401   2.072       .  S
N394        C395   1.346       .  A
N394       Cu400   2.075       .  S
C395        C396   1.380       .  A
C395        H398   1.082       .  S
C396        C397   1.379       .  A
C396        C421   1.437       .  S
C397        H399   1.082       .  S
Cu401       N411   2.072       .  S
Cu402       N404   2.073       .  S
Cu402       N410   2.073       .  S
N403        N404   1.323       .  A
N403        C407   1.346       .  A
N404        C405   1.345       .  A
C405        C406   1.379       .  A
C405        H408   1.082       .  S
C406        C407   1.380       .  A
C406        C424   1.437       .  S
C407        H409   1.082       .  S
N410        C414   1.345       .  A
N411        C412   1.345       .  A
C412        C413   1.379       .  A
C412        H415   1.082       .  S
C413        C420   1.437       .  S
C414        H416   1.082       .  S
C417        C418   1.205       .  T
C418        C419   1.412   1_556  S
C419        C420   1.205       .  T
C421        C422   1.206       .  T
C423        C424   1.206       .  T
C425        C426   1.205       .  T
C426        C427   1.411       .  S
C427        C428   1.205       .  T
C429        C430   1.205       .  T
C431        C432   1.205       .  T
C433        C434   1.205       .  T
C434        C435   1.411       .  S
C435        C436   1.205       .  T
C437        C438   1.206       .  T
C439        C440   1.206       .  T
C441        C442   1.205       .  T
C443        C444   1.206       .  T
C445        C446   1.205       .  T
C446        C447   1.412       .  S
C447        C448   1.205       .  T
N449        N450   1.323       .  A
N449        C453   1.345       .  A
N449       Cu457   2.073       .  S
N450        C451   1.346       .  A
N450       Cu456   2.075       .  S
C451        C452   1.379       .  A
C451        H454   1.082       .  S
C452        C453   1.379       .  A
C452        C667   1.437       .  S
C453        H455   1.082       .  S
Cu456       N459   2.075       .  S
Cu457       N467   2.073       .  S
Cu458       N460   2.072       .  S
Cu458       N466   2.072       .  S
N459        N460   1.323       .  A
N459        C463   1.346       .  A
N460        C461   1.345       .  A
C461        C462   1.378       .  A
C461        H464   1.082       .  S
C462        C463   1.380       .  A
C462        C665   1.436       .  S
C463        H465   1.082       .  S
N466        N467   1.323       .  A
N466        C470   1.345       .  A
N467        C468   1.345       .  A
C468        C469   1.379       .  A
C468        H471   1.082       .  S
C469        C470   1.379       .  A
C469        C672   1.437       .  S
C470        H472   1.082       .  S
N473        N474   1.323       .  A
N473        C477   1.345       .  A
N473       Cu481   2.072       .  S
N474        C475   1.346       .  A
N474       Cu480   2.075       .  S
C475        C476   1.380       .  A
C475        H478   1.082       .  S
C476        C477   1.379       .  A
C476        C662   1.437       .  S
C477        H479   1.082       .  S
Cu480       N483   2.075       .  S
Cu481       N491   2.072       .  S
Cu482       N484   2.073       .  S
Cu482       N490   2.073       .  S
N483        N484   1.323       .  A
N483        C487   1.346       .  A
N484        C485   1.345       .  A
C485        C486   1.379       .  A
C485        H488   1.082       .  S
C486        C487   1.380       .  A
C486        C663   1.437       .  S
C487        H489   1.082       .  S
N490        N491   1.323       .  A
N490        C494   1.346       .  A
N491        C492   1.345       .  A
C492        C493   1.379       .  A
C492        H495   1.082       .  S
C493        C494   1.379       .  A
C493        C669   1.437       .  S
C494        H496   1.082       .  S
N497        N498   1.323       .  A
N497        C501   1.345       .  A
N497       Cu505   2.072       .  S
N498        C499   1.346       .  A
N498       Cu504   2.075       .  S
C499        C500   1.380       .  A
C499        H502   1.082       .  S
C500        C501   1.379       .  A
C500        C653   1.436       .  S
C501        H503   1.082       .  S
Cu505       N515   2.072       .  S
Cu506       N508   2.072       .  S
Cu506       N514   2.072       .  S
N507        N508   1.323       .  A
N507        C511   1.346       .  A
N508        C509   1.345       .  A
C509        C510   1.379       .  A
C509        H512   1.082       .  S
C510        C511   1.380       .  A
C510        C655   1.436       .  S
C511        H513   1.082       .  S
N514        C518   1.345       .  A
N515        C516   1.345       .  A
C516        C517   1.379       .  A
C516        H519   1.082       .  S
C517        C660   1.436       .  S
C518        H520   1.082       .  S
N521        N522   1.323       .  A
N521        C525   1.345       .  A
N521       Cu529   2.072       .  S
N522        C523   1.346       .  A
N522       Cu528   2.075       .  S
C523        C524   1.379       .  A
C523        H526   1.082       .  S
C524        C525   1.379       .  A
C524        C666   1.436       .  S
C525        H527   1.082       .  S
Cu529       N539   2.072       .  S
Cu530       N532   2.072       .  S
Cu530       N538   2.072       .  S
N531        N532   1.323       .  A
N531        C535   1.346       .  A
N532        C533   1.345       .  A
C533        C534   1.379       .  A
C533        H536   1.082       .  S
C534        C535   1.380       .  A
C534        C668   1.437       .  S
C535        H537   1.082       .  S
N538        C542   1.345       .  A
N539        C540   1.345       .  A
C540        H543   1.082       .  S
C541        C542   1.379       .  A
C541        C657   1.436       .  S
C542        H544   1.082       .  S
N545        N546   1.323       .  A
N545        C549   1.345       .  A
N545       Cu553   2.073       .  S
N546        C547   1.346       .  A
N546       Cu552   2.075       .  S
C547        C548   1.379       .  A
C547        H550   1.082       .  S
C548        C549   1.379       .  A
C548        C647   1.437       .  S
C549        H551   1.082       .  S
Cu552       N555   2.075       .  S
Cu553       N563   2.073       .  S
Cu554       N556   2.072       .  S
Cu554       N562   2.072       .  S
N555        N556   1.323       .  A
N555        C559   1.346       .  A
N556        C557   1.345       .  A
C557        C558   1.379       .  A
C557        H560   1.082       .  S
C558        C559   1.380       .  A
C558        C646   1.437       .  S
C559        H561   1.082       .  S
N562        N563   1.323       .  A
N562        C566   1.345       .  A
N563        C564   1.345       .  A
C564        C565   1.379       .  A
C564        H567   1.082       .  S
C565        C566   1.379       .  A
C565        C652   1.437       .  S
C566        H568   1.082       .  S
N569        N570   1.323       .  A
N569        C573   1.345       .  A
N569       Cu577   2.071       .  S
N570        C571   1.346       .  A
N570       Cu576   2.075       .  S
C571        C572   1.380       .  A
C571        H574   1.082       .  S
C572        C573   1.378       .  A
C572        C656   1.436       .  S
C573        H575   1.082       .  S
Cu576       N579   2.075       .  S
Cu577       N587   2.071       .  S
Cu578       N580   2.073       .  S
Cu578       N586   2.073       .  S
N579        N580   1.323       .  A
N579        C583   1.346       .  A
N580        C581   1.345       .  A
C581        C582   1.379       .  A
C581        H584   1.082       .  S
C582        C583   1.379       .  A
C582        C654   1.436       .  S
C583        H585   1.082       .  S
N586        N587   1.323       .  A
N586        C590   1.345       .  A
N587        C588   1.345       .  A
C588        C589   1.379       .  A
C588        H591   1.082       .  S
C589        C590   1.379       .  A
C589        C649   1.436       .  S
C590        H592   1.082       .  S
N593        N594   1.323       .  A
N593        C597   1.345       .  A
N593       Cu601   2.073       .  S
N594        C595   1.346       .  A
N594       Cu824   2.075   1_545  S
C595        C596   1.380       .  A
C595        H598   1.082       .  S
C596        C597   1.379       .  A
C596        C661   1.437       .  S
C597        H599   1.082       .  S
Cu600       N818   2.075       .  S
Cu600       N603   2.075       .  S
Cu601       N611   2.072       .  S
Cu602       N604   2.073       .  S
Cu602       N610   2.073       .  S
N603        N604   1.323       .  A
N603        C607   1.346       .  A
N604        C605   1.345       .  A
C605        C606   1.379       .  A
C605        H608   1.082       .  S
C606        C607   1.380       .  A
C606        C664   1.437       .  S
C607        H609   1.082       .  S
N610        N835   1.323       .  A
N610        C614   1.345       .  A
N611        N834   1.323   1_545  A
N611        C612   1.345       .  A
C612        C837   1.379   1_545  A
C612        H615   1.082       .  S
C613        C836   1.379       .  A
C613        C614   1.379       .  A
C613        C641   1.437       .  S
C614        H616   1.082       .  S
N617        N618   1.323       .  A
N617        C621   1.345       .  A
N617       Cu625   2.072       .  S
N618        C619   1.346       .  A
N618       Cu624   2.075       .  S
C619        C620   1.380       .  A
C619        H622   1.082       .  S
C620        C621   1.379       .  A
C620        C645   1.437       .  S
C621        H623   1.082       .  S
Cu624       N851   2.075       .  S
Cu625       N635   2.072       .  S
Cu626       N628   2.073       .  S
Cu626       N634   2.073       .  S
N627        N628   1.323       .  A
N627        C631   1.346       .  A
N627       Cu848   2.075   1_545  S
N628        C629   1.345       .  A
C629        C630   1.379       .  A
C629        H632   1.082       .  S
C630        C631   1.380       .  A
C630        C648   1.437       .  S
C631        H633   1.082       .  S
N634        N859   1.323   1_545  A
N634        C638   1.345       .  A
N635        N858   1.323       .  A
N635        C636   1.345       .  A
C636        C637   1.379       .  A
C636        H639   1.082       .  S
C637        C862   1.379       .  A
C637        C644   1.437       .  S
C638        C861   1.379   1_545  A
C638        H640   1.082       .  S
C641        C642   1.205       .  T
C642        C643   1.412   1_556  S
C643        C644   1.205       .  T
C645        C646   1.206       .  T
C647        C648   1.206       .  T
C649        C650   1.205       .  T
C650        C651   1.411       .  S
C651        C652   1.205       .  T
C653        C654   1.205       .  T
C655        C656   1.205       .  T
C657        C658   1.205       .  T
C658        C659   1.411       .  S
C659        C660   1.205       .  T
C661        C662   1.206       .  T
C663        C664   1.206       .  T
C665        C666   1.205       .  T
C667        C668   1.206       .  T
C669        C670   1.205       .  T
C670        C671   1.412       .  S
C671        C672   1.205       .  T
N673        N674   1.323       .  A
N673        C677   1.345       .  A
N673       Cu681   2.073       .  S
N674        C675   1.346       .  A
N674       Cu680   2.075       .  S
C675        C676   1.379       .  A
C675        H678   1.082       .  S
C676        C677   1.379       .  A
C676        C891   1.437       .  S
C677        H679   1.082       .  S
Cu680       N683   2.075       .  S
Cu681       N691   2.073       .  S
Cu682       N684   2.072       .  S
Cu682       N690   2.072       .  S
N683        N684   1.323       .  A
N683        C687   1.346       .  A
N684        C685   1.345       .  A
C685        C686   1.378       .  A
C685        H688   1.082       .  S
C686        C687   1.380       .  A
C686        C889   1.436       .  S
C687        H689   1.082       .  S
N690        N691   1.323       .  A
N690        C694   1.345       .  A
N691        C692   1.345       .  A
C692        C693   1.379       .  A
C692        H695   1.082       .  S
C693        C694   1.379       .  A
C693        C896   1.437       .  S
C694        H696   1.082       .  S
N697        N698   1.323       .  A
N697        C701   1.345       .  A
N697       Cu705   2.072       .  S
N698        C699   1.346       .  A
N698       Cu704   2.075       .  S
C699        C700   1.380       .  A
C699        H702   1.082       .  S
C700        C701   1.379       .  A
C700        C886   1.437       .  S
C701        H703   1.082       .  S
Cu704       N707   2.075       .  S
Cu705       N715   2.072       .  S
Cu706       N708   2.073       .  S
Cu706       N714   2.073       .  S
N707        N708   1.323       .  A
N707        C711   1.346       .  A
N708        C709   1.345       .  A
C709        C710   1.379       .  A
C709        H712   1.082       .  S
C710        C711   1.380       .  A
C710        C887   1.437       .  S
C711        H713   1.082       .  S
N714        N715   1.323       .  A
N714        C718   1.346       .  A
N715        C716   1.345       .  A
C716        C717   1.379       .  A
C716        H719   1.082       .  S
C717        C718   1.379       .  A
C717        C893   1.437       .  S
C718        H720   1.082       .  S
N721        N722   1.323       .  A
N721        C725   1.345       .  A
N721       Cu729   2.072       .  S
N722        C723   1.346       .  A
N722       Cu728   2.075       .  S
C723        C724   1.380       .  A
C723        H726   1.082       .  S
C724        C725   1.379       .  A
C724        C877   1.436       .  S
C725        H727   1.082       .  S
Cu729       N739   2.072       .  S
Cu730       N732   2.072       .  S
Cu730       N738   2.072       .  S
N731        N732   1.323       .  A
N731        C735   1.346       .  A
N732        C733   1.345       .  A
C733        C734   1.379       .  A
C733        H736   1.082       .  S
C734        C735   1.380       .  A
C734        C879   1.436       .  S
C735        H737   1.082       .  S
N738        C742   1.345       .  A
N739        C740   1.345       .  A
C740        C741   1.379       .  A
C740        H743   1.082       .  S
C741        C884   1.436       .  S
C742        H744   1.082       .  S
N745        N746   1.323       .  A
N745        C749   1.345       .  A
N745       Cu753   2.072       .  S
N746        C747   1.346       .  A
N746       Cu752   2.075       .  S
C747        C748   1.379       .  A
C747        H750   1.082       .  S
C748        C749   1.379       .  A
C748        C890   1.436       .  S
C749        H751   1.082       .  S
Cu753       N763   2.072       .  S
Cu754       N756   2.072       .  S
Cu754       N762   2.072       .  S
N755        N756   1.323       .  A
N755        C759   1.346       .  A
N756        C757   1.345       .  A
C757        C758   1.379       .  A
C757        H760   1.082       .  S
C758        C759   1.380       .  A
C758        C892   1.437       .  S
C759        H761   1.082       .  S
N762        C766   1.345       .  A
N763        C764   1.345       .  A
C764        H767   1.082       .  S
C765        C766   1.379       .  A
C765        C881   1.436       .  S
C766        H768   1.082       .  S
N769        N770   1.323       .  A
N769        C773   1.345       .  A
N769       Cu777   2.073       .  S
N770        C771   1.346       .  A
N770       Cu776   2.075       .  S
C771        C772   1.379       .  A
C771        H774   1.082       .  S
C772        C773   1.379       .  A
C772        C871   1.437       .  S
C773        H775   1.082       .  S
Cu776       N779   2.075       .  S
Cu777       N787   2.073       .  S
Cu778       N780   2.072       .  S
Cu778       N786   2.072       .  S
N779        N780   1.323       .  A
N779        C783   1.346       .  A
N780        C781   1.345       .  A
C781        C782   1.379       .  A
C781        H784   1.082       .  S
C782        C783   1.380       .  A
C782        C870   1.437       .  S
C783        H785   1.082       .  S
N786        N787   1.323       .  A
N786        C790   1.345       .  A
N787        C788   1.345       .  A
C788        C789   1.379       .  A
C788        H791   1.082       .  S
C789        C790   1.379       .  A
C789        C876   1.437       .  S
C790        H792   1.082       .  S
N793        N794   1.323       .  A
N793        C797   1.345       .  A
N793       Cu801   2.071       .  S
N794        C795   1.346       .  A
N794       Cu800   2.075       .  S
C795        C796   1.380       .  A
C795        H798   1.082       .  S
C796        C797   1.378       .  A
C796        C880   1.436       .  S
C797        H799   1.082       .  S
Cu800       N803   2.075       .  S
Cu801       N811   2.071       .  S
Cu802       N804   2.073       .  S
Cu802       N810   2.073       .  S
N803        N804   1.323       .  A
N803        C807   1.346       .  A
N804        C805   1.345       .  A
C805        C806   1.379       .  A
C805        H808   1.082       .  S
C806        C807   1.379       .  A
C806        C878   1.436       .  S
C807        H809   1.082       .  S
N810        N811   1.323       .  A
N810        C814   1.345       .  A
N811        C812   1.345       .  A
C812        C813   1.379       .  A
C812        H815   1.082       .  S
C813        C814   1.379       .  A
C813        C873   1.436       .  S
C814        H816   1.082       .  S
N817        N818   1.323       .  A
N817        C821   1.345       .  A
N817       Cu825   2.073       .  S
N818        C819   1.346       .  A
C819        C820   1.380       .  A
C819        H822   1.082       .  S
C820        C821   1.379       .  A
C820        C885   1.437       .  S
C821        H823   1.082       .  S
Cu824       N827   2.075       .  S
Cu825       N835   2.072       .  S
Cu826       N828   2.073       .  S
Cu826       N834   2.073       .  S
N827        N828   1.323       .  A
N827        C831   1.346       .  A
N828        C829   1.345       .  A
C829        C830   1.379       .  A
C829        H832   1.082       .  S
C830        C831   1.380       .  A
C830        C888   1.437       .  S
C831        H833   1.082       .  S
N834        C838   1.345       .  A
N835        C836   1.345       .  A
C836        H839   1.082       .  S
C837        C838   1.379       .  A
C837        C865   1.437       .  S
C838        H840   1.082       .  S
N841        N842   1.323       .  A
N841        C845   1.345       .  A
N841       Cu849   2.072       .  S
N842        C843   1.346       .  A
N842       Cu848   2.075       .  S
C843        C844   1.380       .  A
C843        H846   1.082       .  S
C844        C845   1.379       .  A
C844        C869   1.437       .  S
C845        H847   1.082       .  S
Cu849       N859   2.072       .  S
Cu850       N852   2.073       .  S
Cu850       N858   2.073       .  S
N851        N852   1.323       .  A
N851        C855   1.346       .  A
N852        C853   1.345       .  A
C853        C854   1.379       .  A
C853        H856   1.082       .  S
C854        C855   1.380       .  A
C854        C872   1.437       .  S
C855        H857   1.082       .  S
N858        C862   1.345       .  A
N859        C860   1.345       .  A
C860        C861   1.379       .  A
C860        H863   1.082       .  S
C861        C868   1.437       .  S
C862        H864   1.082       .  S
C865        C866   1.205       .  T
C866        C867   1.412   1_556  S
C867        C868   1.205       .  T
C869        C870   1.206       .  T
C871        C872   1.206       .  T
C873        C874   1.205       .  T
C874        C875   1.411       .  S
C875        C876   1.205       .  T
C877        C878   1.205       .  T
C879        C880   1.205       .  T
C881        C882   1.205       .  T
C882        C883   1.411       .  S
C883        C884   1.205       .  T
C885        C886   1.206       .  T
C887        C888   1.206       .  T
C889        C890   1.205       .  T
C891        C892   1.206       .  T
C893        C894   1.205       .  T
C894        C895   1.412       .  S
C895        C896   1.205       .  T
