geometry optimzed in LAMMPS
_audit_creation_date              2020-11-30 
_audit_creation_method            'lammps2cif' 
_symmetry_space_group_name_H-M    'P1' 
_symmetry_Int_Tables_number       1 
_symmetry_cell_setting            triclinic 
loop_ 
_symmetry_equiv_pos_as_xyz 
  x,y,z 
_cell_length_a                    26.07969179 
_cell_length_b                    26.110849155675375 
_cell_length_c                    73.34697808680863 
_cell_angle_alpha                 89.99545117040019 
_cell_angle_beta                  89.99538492579129 
_cell_angle_gamma                 88.4586244609082 
loop_ 
_atom_site_label 
_atom_site_type_symbol 
_atom_site_fract_x 
_atom_site_fract_y 
_atom_site_fract_z 
_atom_site_charge 
O1          O  0.04325969  0.49639489  0.19015314    -0.74600
O2          O  0.02966306  0.99943863  0.13817354    -0.74700
O3          O  0.03300898  0.07259329  0.16398462    -0.74700
O4          O  0.03815367  0.42669665  0.16326348    -0.74800
O5          O  0.44353832  0.43264336  0.16577124    -0.74700
O6          O  0.43786249  0.07994339  0.16633523    -0.74700
O7          O  0.43494471  0.51013337  0.14098175    -0.74700
O8          O  0.44414287  0.00600066  0.19238122    -0.74700
Ni9        Ni  0.03519678  0.99941477  0.16415333     1.25400
Ni10       Ni  0.43394485  0.00706210  0.16635640     1.25400
C11         C  0.00244203  0.49368116  0.19971482     0.87500
C12         C  0.47115901  0.00709361  0.13030991     0.87500
C13         C  0.99048211  0.09823645  0.16433214     0.87500
C14         C  0.99537632  0.40374653  0.16396056     0.87700
O15         O  0.03759380  0.24770345  0.18949235    -0.74600
O16         O  0.03351786  0.24981055  0.13726849    -0.74700
O17         O  0.03720613  0.32206911  0.16352896    -0.74700
O18         O  0.03437030  0.17600885  0.16323155    -0.74800
O19         O  0.43903564  0.18370856  0.16475213    -0.74700
O20         O  0.44239887  0.32973414  0.16569092    -0.74700
O21         O  0.43455327  0.25931075  0.13913800    -0.74700
O22         O  0.44660404  0.25435195  0.19124032    -0.74700
Ni23       Ni  0.03873274  0.24879760  0.16334133     1.25400
Ni24       Ni  0.43757852  0.25692227  0.16528848     1.25400
C25         C  0.99536163  0.24806745  0.19839956     0.87500
C26         C  0.99016506  0.25351428  0.12906477     0.87500
C27         C  0.99482043  0.34787915  0.16400016     0.87500
C28         C  0.99117701  0.15399174  0.16370805     0.87700
O29         O  0.30193547  0.49274579  0.19035863    -0.74600
O30         O  0.30572800  0.99182366  0.13895137    -0.74700
O31         O  0.30347696  0.06753493  0.16444911    -0.74700
O32         O  0.30167651  0.42244982  0.16347202    -0.74800
O33         O  0.21602690  0.42355414  0.16365338    -0.74700
O34         O  0.21786659  0.07105234  0.16335130    -0.74700
O35         O  0.21351596  0.49959206  0.13850777    -0.74700
O36         O  0.21299638  0.99994596  0.18990168    -0.74700
Ni37       Ni  0.30336170  0.49557140  0.16422561     1.25400
Ni38       Ni  0.21166839  0.49665753  0.16475942     1.25400
C39         C  0.25968408  0.49065032  0.19916691     0.87500
C40         C  0.25596210  0.49809334  0.12963571     0.87500
C41         C  0.26097015  0.09320452  0.16377244     0.87500
C42         C  0.25918621  0.39903434  0.16340554     0.87700
O43         O  0.21387000  0.24673321  0.18883841    -0.74600
O44         O  0.22109638  0.24715035  0.13678353    -0.74700
O45         O  0.21829811  0.17395995  0.16272321    -0.74700
O46         O  0.21711852  0.32004898  0.16284283    -0.74800
O47         O  0.30273750  0.31825823  0.16379196    -0.74700
O48         O  0.30384646  0.17191360  0.16438233    -0.74700
O49         O  0.30659286  0.24373642  0.13792754    -0.74700
O50         O  0.29944322  0.24571733  0.19028265    -0.74700
Ni51       Ni  0.21458442  0.24706423  0.16273923     1.25400
Ni52       Ni  0.30627378  0.24495321  0.16415671     1.25400
C53         C  0.25544350  0.24586199  0.19808684     0.87500
C54         C  0.26471995  0.24497858  0.12875021     0.87500
C55         C  0.26116199  0.14901088  0.16358646     0.87500
C56         C  0.25976800  0.34311901  0.16327860     0.87700
O57         O  0.01010103  0.43864252  0.22535636    -0.74600
O58         O  0.51676801  0.41534767  0.27701250    -0.74700
O59         O  0.44027196  0.42770528  0.25198282    -0.74700
O60         O  0.08670126  0.42653367  0.25037454    -0.74800
O61         O  0.07106930  0.05104246  0.25269478    -0.74700
O62         O  0.42484760  0.05281769  0.25382242    -0.74700
O63         O  0.99852350  0.05524239  0.27916783    -0.74700
O64         O  0.49589408  0.04950437  0.22726960    -0.74700
Ni65       Ni  0.51333025  0.42513711  0.25093464     1.25400
Ni66       Ni  0.49790335  0.05561115  0.25327339     1.25400
C67         C  0.50571672  0.48756324  0.21945755     0.87500
C68         C  0.51588910  0.45353477  0.28803556     0.87500
C69         C  0.41512841  0.46995054  0.25426693     0.87500
C70         C  0.10935793  0.46877094  0.25296732     0.87700
O71         O  0.99833773  0.20050641  0.22588368    -0.74600
O72         O  0.50247268  0.19204736  0.27808123    -0.74700
O73         O  0.42686726  0.19702008  0.25270115    -0.74700
O74         O  0.07338960  0.19633480  0.25131048    -0.74800
O75         O  0.07069521  0.28173422  0.25327360    -0.74700
O76         O  0.42456920  0.28246692  0.25442595    -0.74700
O77         O  0.99830619  0.27728254  0.27971701    -0.74700
O78         O  0.49581980  0.28778536  0.22792483    -0.74700
Ni79       Ni  0.49999788  0.19392787  0.25184337     1.25400
Ni80       Ni  0.49763943  0.28540104  0.25401065     1.25400
C81         C  0.49526498  0.24687263  0.21835739     0.87500
C82         C  0.50086365  0.23324657  0.28762550     0.87500
C83         C  0.40178780  0.23972212  0.25363574     0.87500
C84         C  0.09598892  0.23913740  0.25211026     0.87700
O85         O  0.26287407  0.43768059  0.22536556    -0.74600
O86         O  0.26513184  0.41660304  0.27723375    -0.74700
O87         O  0.19063303  0.42659685  0.25134135    -0.74700
O88         O  0.33685486  0.42755909  0.25125344    -0.74800
O89         O  0.32099763  0.05222453  0.25345387    -0.74700
O90         O  0.17489627  0.05118407  0.25215560    -0.74700
O91         O  0.24587941  0.05589809  0.27885522    -0.74700
O92         O  0.25009104  0.04696623  0.22663795    -0.74700
Ni93       Ni  0.26392094  0.42407430  0.25112799     1.25400
Ni94       Ni  0.24783754  0.05462177  0.25269389     1.25400
C95         C  0.26111881  0.48337704  0.21896933     0.87500
C96         C  0.26413680  0.45565936  0.28784243     0.87500
C97         C  0.16525942  0.46892586  0.25318285     0.87500
C98         C  0.35934677  0.46992715  0.25373820     0.87700
O99         O  0.25031277  0.28548963  0.22714977    -0.74600
O100        O  0.24503399  0.27858782  0.27936249    -0.74700
O101        O  0.32070274  0.28225012  0.25416727    -0.74700
O102        O  0.17453692  0.28207913  0.25246755    -0.74800
O103        O  0.17714213  0.19655487  0.25142699    -0.74700
O104        O  0.32338909  0.19679906  0.25244736    -0.74700
O105        O  0.24928235  0.19320137  0.27798291    -0.74700
O106        O  0.25208248  0.19999231  0.22581862    -0.74700
Ni107      Ni  0.24751510  0.28517019  0.25332555     1.25400
Ni108      Ni  0.25045604  0.19357253  0.25185530     1.25400
C109        C  0.25249032  0.24377130  0.21796691     0.87500
C110        C  0.24687494  0.23477264  0.28726262     0.87500
C111        C  0.34596453  0.23959725  0.25349435     0.87500
C112        C  0.15188179  0.23926726  0.25191664     0.87700
O113        O  0.04511217  0.37503861  0.43231346    -0.74600
O114        O  0.54484366  0.37516955  0.48532717    -0.74700
O115        O  0.47213877  0.37490485  0.45879756    -0.74700
O116        O  0.11833097  0.37495530  0.45866647    -0.74800
O117        O  0.05639285  0.07049507  0.45919269    -0.74700
O118        O  0.41018339  0.07025198  0.45986679    -0.74700
O119        O  0.98354835  0.06918946  0.48558556    -0.74700
O120        O  0.48264449  0.07110188  0.43350029    -0.74700
Ni121      Ni  0.54539582  0.37194700  0.45891302     1.25400
Ni122      Ni  0.48308877  0.07317598  0.45973115     1.25400
C123        C  0.54268439  0.41819839  0.42403173     0.87500
C124        C  0.48612422  0.02554509  0.49422399     0.87500
C125        C  0.44691413  0.41762433  0.45872420     0.87500
C126        C  0.14105016  0.41773842  0.45865539     0.87700
O127        O  0.07964182  0.26560097  0.45826557    -0.74600
O128        O  0.43330847  0.26568481  0.45892647    -0.74700
O129        O  0.00668977  0.26472283  0.48456854    -0.74700
O130        O  0.50558850  0.26650595  0.43272869    -0.74800
O131        O  0.00894812  0.18112543  0.43203011    -0.74700
O132        O  0.50968593  0.17942884  0.48476554    -0.74700
O133        O  0.43604962  0.18017456  0.45856776    -0.74700
O134        O  0.08221328  0.18008577  0.45799676    -0.74700
Ni135      Ni  0.50621111  0.26876898  0.45886881     1.25400
Ni136      Ni  0.50939596  0.17718964  0.45855365     1.25400
C137        C  0.10487441  0.22287834  0.45804795     0.87500
C138        C  0.41073093  0.22286508  0.45865319     0.87500
C139        C  0.50783463  0.22194273  0.49351145     0.87500
C140        C  0.50711498  0.22406650  0.42394566     0.87700
O141        O  0.23194691  0.07008828  0.48524764    -0.74600
O142        O  0.23426008  0.07067449  0.43291352    -0.74700
O143        O  0.16018428  0.07065296  0.45874770    -0.74700
O144        O  0.30645951  0.07026528  0.45948417    -0.74800
O145        O  0.36837996  0.37483513  0.45812229    -0.74700
O146        O  0.22212154  0.37502884  0.45810228    -0.74700
O147        O  0.29523871  0.37742915  0.43172946    -0.74700
O148        O  0.29520463  0.37288878  0.48446620    -0.74700
Ni149      Ni  0.23312601  0.07352505  0.45909131     1.25400
Ni150      Ni  0.29540898  0.37190564  0.45805981     1.25400
C151        C  0.29241202  0.41530573  0.49331017     0.87500
C152        C  0.29303192  0.42112355  0.42366694     0.87500
C153        C  0.19693983  0.41776252  0.45853980     0.87500
C154        C  0.39109361  0.41758985  0.45858735     0.87700
O155        O  0.25566371  0.26475499  0.48424000    -0.74600
O156        O  0.25639003  0.26656935  0.43213279    -0.74700
O157        O  0.18337291  0.26573513  0.45807461    -0.74700
O158        O  0.32963044  0.26553663  0.45838862    -0.74800
O159        O  0.33223734  0.18002184  0.45805917    -0.74700
O160        O  0.18598125  0.18021963  0.45772713    -0.74700
O161        O  0.25978924  0.18113220  0.43170689    -0.74700
O162        O  0.25896930  0.17932354  0.48401891    -0.74700
Ni163      Ni  0.25631188  0.26868565  0.45821192     1.25400
Ni164      Ni  0.25929831  0.17707940  0.45785218     1.25400
C165        C  0.25687711  0.22187489  0.49272580     0.87500
C166        C  0.25776520  0.22421068  0.42332263     0.87500
C167        C  0.16072845  0.22293482  0.45792035     0.87500
C168        C  0.35487936  0.22280778  0.45836382     0.87700
O169        O  0.41250887  0.02971690  0.98580163    -0.74600
O170        O  0.40943440  0.53159820  0.93272620    -0.74700
O171        O  0.40858586  0.45706355  0.95869420    -0.74700
O172        O  0.41082582  0.10226173  0.95945208    -0.74800
O173        O  0.02868525  0.08753499  0.95880447    -0.74700
O174        O  0.02307793  0.44168901  0.95797730    -0.74700
O175        O  0.02832529  0.01323305  0.93285763    -0.74700
O176        O  0.02320448  0.51203256  0.98490576    -0.74700
Ni177      Ni  0.40845137  0.02930532  0.95956420     1.25400
Ni178      Ni  0.03141915  0.01410068  0.95897815     1.25400
C179        C  0.45572304  0.02852863  0.99416949     0.87500
C180        C  0.45333970  0.02663400  0.92460488     0.87500
C181        C  0.45105571  0.43131530  0.95846989     0.87500
C182        C  0.45343126  0.12534888  0.95916060     0.87700
O183        O  0.40742508  0.27652299  0.93273250    -0.74600
O184        O  0.41064084  0.28120455  0.98517940    -0.74700
O185        O  0.40815457  0.35234307  0.95827698    -0.74700
O186        O  0.40985335  0.20594233  0.95965715    -0.74800
O187        O  0.02784838  0.19219914  0.95844749    -0.74700
O188        O  0.02430833  0.33861459  0.95817340    -0.74700
O189        O  0.02579995  0.26561163  0.98434340    -0.74700
O190        O  0.02671185  0.26501861  0.93229871    -0.74700
Ni191      Ni  0.40588086  0.27911608  0.95897970     1.25400
Ni192      Ni  0.02919459  0.26542714  0.95832241     1.25400
C193        C  0.44985037  0.27648223  0.92389951     0.87500
C194        C  0.45410369  0.27901886  0.99336503     0.87500
C195        C  0.45083265  0.37541622  0.95830961     0.87500
C196        C  0.45287071  0.18123076  0.95902267     0.87700
O197        O  0.29944367  0.98529708  0.93219933    -0.74600
O198        O  0.30050627  0.48808699  0.98435259    -0.74700
O199        O  0.30154549  0.41512294  0.95819675    -0.74700
O200        O  0.30329898  0.06010656  0.95775643    -0.74800
O201        O  0.21773718  0.06373291  0.95878732    -0.74700
O202        O  0.21593355  0.41692552  0.95803613    -0.74700
O203        O  0.21931653  0.99195430  0.98535728    -0.74700
O204        O  0.21563387  0.49053788  0.93182738    -0.74700
Ni205      Ni  0.30390381  0.48811640  0.95812845     1.25400
Ni206      Ni  0.21224309  0.49025445  0.95800123     1.25400
C207        C  0.25845900  0.48949832  0.92321928     0.87500
C208        C  0.25759783  0.48930464  0.99291902     0.87500
C209        C  0.25892318  0.39204460  0.95816871     0.87500
C210        C  0.26082742  0.08588748  0.95802134     0.87700
O211        O  0.22017848  0.23992579  0.98434596    -0.74600
O212        O  0.21500943  0.23995407  0.93222865    -0.74700
O213        O  0.21818802  0.16678335  0.95835561    -0.74700
O214        O  0.21680496  0.31295858  0.95827702    -0.74800
O215        O  0.30242088  0.31130433  0.95810958    -0.74700
O216        O  0.30366809  0.16484649  0.95664362    -0.74700
O217        O  0.30048225  0.24105890  0.93123961    -0.74700
O218        O  0.30565501  0.23559099  0.98348390    -0.74700
Ni219      Ni  0.21451957  0.23989762  0.95833551     1.25400
Ni220      Ni  0.30616211  0.23808071  0.95731681     1.25400
C221        C  0.26360537  0.23750705  0.99252304     0.87500
C222        C  0.25689317  0.24172374  0.92316598     0.87500
C223        C  0.26103773  0.14182355  0.95759544     0.87500
C224        C  0.25940905  0.33611383  0.95821586     0.87700
O225        O  0.45127753  0.50049414  0.72488011    -0.74600
O226        O  0.43144767  0.00784424  0.77833510    -0.74700
O227        O  0.44060600  0.07890955  0.75192056    -0.74700
O228        O  0.44159517  0.43242995  0.75219054    -0.74800
O229        O  0.03816308  0.42732404  0.75424349    -0.74700
O230        O  0.03877343  0.07311607  0.75405814    -0.74700
O231        O  0.03336331  0.50383782  0.77926100    -0.74700
O232        O  0.04172202  0.99977481  0.72803887    -0.74700
Ni233      Ni  0.43702896  0.00603753  0.75219204     1.25400
Ni234      Ni  0.04095592  0.99993363  0.75419801     1.25400
C235        C  0.49410006  0.00356932  0.71948989     0.87500
C236        C  0.47136751  0.00616834  0.78853777     0.87500
C237        C  0.48323174  0.10144153  0.75383416     0.87500
C238        C  0.48405840  0.40708665  0.75375040     0.87700
O239        O  0.44864101  0.25439771  0.72611213    -0.74600
O240        O  0.43345352  0.25528169  0.77819324    -0.74700
O241        O  0.44117447  0.32840537  0.75220326    -0.74700
O242        O  0.44089138  0.18226108  0.75216470    -0.74800
O243        O  0.03934532  0.17718218  0.75360308    -0.74700
O244        O  0.03870434  0.32355172  0.75330302    -0.74700
O245        O  0.03724585  0.25111384  0.77944028    -0.74700
O246        O  0.04123634  0.24928799  0.72727747    -0.74700
Ni247      Ni  0.43799269  0.25527554  0.75204322     1.25400
Ni248      Ni  0.04220130  0.25029023  0.75341830     1.25400
C249        C  0.49360329  0.25093122  0.71909663     0.87500
C250        C  0.47367119  0.25601562  0.78821143     0.87500
C251        C  0.48388147  0.35117227  0.75356291     0.87500
C252        C  0.48340539  0.15718528  0.75392801     0.87700
O253        O  0.21330352  0.49663239  0.72556648    -0.74600
O254        O  0.21010499  0.99919618  0.77927983    -0.74700
O255        O  0.21036247  0.07238782  0.75317218    -0.74700
O256        O  0.21251105  0.42645391  0.75246552    -0.74800
O257        O  0.29816209  0.42323381  0.75202540    -0.74700
O258        O  0.29602196  0.07008211  0.75369839    -0.74700
O259        O  0.29943581  0.49704446  0.77783613    -0.74700
O260        O  0.29669015  0.99807577  0.72721713    -0.74700
Ni261      Ni  0.20739994  0.99941486  0.75315770     1.25400
Ni262      Ni  0.29919536  0.99687151  0.75334857     1.25400
C263        C  0.25401461  0.99926806  0.71859084     0.87500
C264        C  0.25685028  0.49911923  0.78656510     0.87500
C265        C  0.25317117  0.09517714  0.75342225     0.87500
C266        C  0.25503135  0.40090347  0.75225048     0.87700
O267        O  0.21044769  0.24865843  0.72650972    -0.74600
O268        O  0.21046439  0.24969429  0.77864492    -0.74700
O269        O  0.21126618  0.32257727  0.75244746    -0.74700
O270        O  0.21034368  0.17621043  0.75281038    -0.74800
O271        O  0.29600257  0.17374878  0.75339945    -0.74700
O272        O  0.29692672  0.31967385  0.75194668    -0.74700
O273        O  0.29607382  0.24930080  0.77877672    -0.74700
O274        O  0.29611878  0.24445203  0.72648442    -0.74700
Ni275      Ni  0.20755423  0.24944702  0.75259259     1.25400
Ni276      Ni  0.29935821  0.24667850  0.75263984     1.25400
C277        C  0.25319815  0.24572833  0.71797741     0.87500
C278        C  0.25311221  0.25001574  0.78728337     0.87500
C279        C  0.25432822  0.34506137  0.75221047     0.87500
C280        C  0.25314317  0.15103898  0.75324235     0.87700
O281        O  0.50111989  0.04797603  0.69151985    -0.74600
O282        O  0.50305446  0.05217211  0.63930464    -0.74700
O283        O  0.42953479  0.05024909  0.66501981    -0.74700
O284        O  0.07575572  0.04899355  0.66479147    -0.74800
O285        O  0.08243755  0.42501235  0.66650943    -0.74700
O286        O  0.43607163  0.42617348  0.66598693    -0.74700
O287        O  0.51220558  0.41348805  0.64088074    -0.74700
O288        O  0.50573057  0.44027817  0.69263302    -0.74700
Ni289      Ni  0.50251416  0.05308700  0.66543423     1.25400
Ni290      Ni  0.50914594  0.42363949  0.66697587     1.25400
C291        C  0.50003944  0.00460883  0.69963549     0.87500
C292        C  0.50475781  0.01025561  0.63021173     0.87500
C293        C  0.40679077  0.00751888  0.66421148     0.87500
C294        C  0.10105220  0.00632804  0.66438289     0.87700
O295        O  0.50101339  0.20177241  0.69194643    -0.74600
O296        O  0.50529239  0.18961327  0.63966133    -0.74700
O297        O  0.07645679  0.19519582  0.66522982    -0.74700
O298        O  0.43020012  0.19533040  0.66516405    -0.74800
O299        O  0.42774399  0.28070913  0.66305489    -0.74700
O300        O  0.07403054  0.28048589  0.66275103    -0.74700
O301        O  0.50172791  0.27484224  0.63746773    -0.74700
O302        O  0.49915386  0.28705537  0.68952044    -0.74700
Ni303      Ni  0.50335517  0.19243953  0.66590035     1.25400
Ni304      Ni  0.50075110  0.28382770  0.66338639     1.25400
C305        C  0.49866253  0.24640569  0.69925471     0.87500
C306        C  0.50350384  0.23050759  0.62995528     0.87500
C307        C  0.09920458  0.23781778  0.66392227     0.87500
C308        C  0.40505557  0.23793294  0.66390994     0.87700
O309        O  0.25346018  0.04577946  0.69100181    -0.74600
O310        O  0.25100874  0.05421285  0.63890530    -0.74700
O311        O  0.17941513  0.04948530  0.66526867    -0.74700
O312        O  0.32568896  0.05017797  0.66463379    -0.74800
O313        O  0.33259311  0.42562921  0.66608260    -0.74700
O314        O  0.18630031  0.42465521  0.66546385    -0.74700
O315        O  0.26164900  0.41161132  0.63996094    -0.74700
O316        O  0.25798038  0.43828874  0.69146789    -0.74700
Ni317      Ni  0.25238000  0.05296945  0.66501299     1.25400
Ni318      Ni  0.25964555  0.42202320  0.66593684     1.25400
C319        C  0.25434619  0.00179411  0.69870927     0.87500
C320        C  0.25275970  0.01295430  0.62945864     0.87500
C321        C  0.15689815  0.00663732  0.66429613     0.87500
C322        C  0.35096538  0.00749603  0.66399752     0.87700
O323        O  0.25154092  0.28440620  0.68878572    -0.74600
O324        O  0.25026874  0.27601696  0.63662471    -0.74700
O325        O  0.17787827  0.28041343  0.66292322    -0.74700
O326        O  0.32406573  0.28034718  0.66251027    -0.74800
O327        O  0.32660790  0.19492743  0.66442835    -0.74700
O328        O  0.18027157  0.19492931  0.66433770    -0.74700
O329        O  0.25407063  0.19066656  0.63824805    -0.74700
O330        O  0.25347419  0.19893338  0.69041773    -0.74700
Ni331      Ni  0.25086964  0.28334673  0.66263542     1.25400
Ni332      Ni  0.25362574  0.19178447  0.66440796     1.25400
C333        C  0.25282054  0.24294848  0.69811247     0.87500
C334        C  0.25216872  0.23203501  0.62884189     0.87500
C335        C  0.15511363  0.23770063  0.66372199     0.87500
C336        C  0.34925501  0.23771953  0.66355933     0.87700
C337        C  0.18038928  0.19179542  0.86455684    -0.18000
C338        C  0.17977592  0.19314594  0.84550355    -0.20200
C339        C  0.21515346  0.22254507  0.83594469     0.20400
C340        C  0.25106801  0.25147080  0.84565221    -0.03100
C341        C  0.25139599  0.25044517  0.86487790    -0.06200
C342        C  0.21619840  0.22004087  0.87435152     0.20700
C343        C  0.28731548  0.27932088  0.87460082     0.18900
C344        C  0.32140122  0.31019804  0.86503846    -0.17700
C345        C  0.32157301  0.31063800  0.84596765    -0.19900
C346        C  0.28707558  0.28088448  0.83615564     0.20400
C347        C  0.28814016  0.27964792  0.81703772    -0.32900
C348        C  0.25243590  0.25091541  0.80734422     0.01100
C349        C  0.21557665  0.22313066  0.81684644    -0.24200
C350        C  0.21779108  0.21800355  0.89344164    -0.28800
C351        C  0.25475264  0.24509322  0.90313630     0.06700
C352        C  0.28909959  0.27602997  0.89368078    -0.27500
H353        H  0.15306313  0.16837065  0.87162907     0.11500
H354        H  0.15196020  0.17078251  0.83824031     0.12600
H355        H  0.34904360  0.33271905  0.87231387     0.11700
H356        H  0.34934765  0.33350528  0.83888533     0.10900
H357        H  0.31619488  0.30158453  0.80967729     0.16300
H358        H  0.18806448  0.20094151  0.80934675     0.12200
H359        H  0.19107044  0.19442279  0.90075953     0.15100
H360        H  0.31696105  0.29774099  0.90120728     0.14800
C361        C  0.33991295  0.44657953  0.86389711    -0.18000
C362        C  0.33954105  0.44777296  0.84481206    -0.20200
C363        C  0.29881680  0.47202538  0.83536280     0.20400
C364        C  0.25764551  0.49456526  0.84525752    -0.03100
C365        C  0.25789740  0.49312276  0.86452887    -0.06200
C366        C  0.29942040  0.46931425  0.87389368     0.20700
C367        C  0.21076957  0.00863171  0.87551035     0.18900
C368        C  0.16942168  0.03190504  0.86613287    -0.17700
C369        C  0.16914691  0.03355812  0.84707730    -0.19900
C370        C  0.21021549  0.01197031  0.83708706     0.20400
C371        C  0.21052189  0.01404335  0.81798633    -0.32900
C372        C  0.25732290  0.49801251  0.80679160     0.01100
C373        C  0.29870883  0.47447142  0.81621906    -0.24200
C374        C  0.29977061  0.46885604  0.89306216    -0.28800
C375        C  0.25844344  0.49059912  0.90299842     0.06700
C376        C  0.21171992  0.00756844  0.89462239    -0.27500
H377        H  0.37221680  0.42833164  0.87084592     0.11500
H378        H  0.37154360  0.43042519  0.83744354     0.12600
H379        H  0.13734337  0.04900290  0.87353962     0.11700
H380        H  0.13683601  0.05186425  0.84015413     0.10900
H381        H  0.17852849  0.03229421  0.81084791     0.16300
H382        H  0.33047999  0.45735430  0.80864184     0.12200
H383        H  0.33184670  0.45090674  0.90025175     0.15100
H384        H  0.18002000  0.02470672  0.90223490     0.14800
C385        C  0.39459998  0.20105500  0.84623359    -0.18000
C386        C  0.39142627  0.20372665  0.86528961    -0.20200
C387        C  0.42190387  0.23771029  0.87509127     0.20400
C388        C  0.45660951  0.26860657  0.86558064    -0.03100
C389        C  0.46035815  0.26536118  0.84640762    -0.06200
C390        C  0.42885239  0.23178123  0.83665204     0.20700
C391        C  0.02996451  0.27827263  0.83653558     0.18900
C392        C  0.06634239  0.30607045  0.84622071    -0.17700
C393        C  0.06458680  0.30829766  0.86524304    -0.19900
C394        C  0.02663208  0.28249074  0.87487538     0.20400
C395        C  0.02425596  0.28512848  0.89392039    -0.32900
C396        C  0.44997083  0.27498496  0.90381080     0.01100
C397        C  0.41836106  0.24154453  0.89419225    -0.24200
C398        C  0.43239009  0.22953292  0.81752463    -0.28800
C399        C  0.46846409  0.25894137  0.80820865     0.06700
C400        C  0.03079162  0.27686280  0.81745626    -0.27500
H401        H  0.37003266  0.17520729  0.83897654     0.11500
H402        H  0.36444815  0.17987320  0.87234831     0.12600
H403        H  0.09588609  0.32647330  0.83907541     0.11700
H404        H  0.09280489  0.33039189  0.87241905     0.10900
H405        H  0.05201607  0.30735232  0.90129128     0.16300
H406        H  0.39208743  0.21767955  0.90161108     0.12200
H407        H  0.40804615  0.20415054  0.80992453     0.15100
H408        H  0.06000767  0.29722047  0.81010133     0.14800
C409        C  0.06485567  0.95373162  0.84750116    -0.18000
C410        C  0.06452602  0.95576571  0.86654345    -0.20200
C411        C  0.02551733  0.98320783  0.87579364     0.20400
C412        C  0.45773575  0.01617124  0.86614242    -0.03100
C413        C  0.46009723  0.01289471  0.84693851    -0.06200
C414        C  0.02621707  0.97914817  0.83740132     0.20700
C415        C  0.42263818  0.54042368  0.83510378     0.18900
C416        C  0.38101028  0.56601599  0.84362959    -0.17700
C417        C  0.37797356  0.56892853  0.86272157    -0.19900
C418        C  0.41660596  0.54651022  0.87371654     0.20400
C419        C  0.41376215  0.54859163  0.89294742    -0.32900
C420        C  0.45389428  0.02315729  0.90446381     0.01100
C421        C  0.02546645  0.98621209  0.89487685    -0.24200
C422        C  0.02703107  0.97831354  0.81830895    -0.28800
C423        C  0.46599896  0.00733125  0.80862266     0.06700
C424        C  0.42577846  0.53654564  0.81592516    -0.27500
H425        H  0.09563792  0.93265891  0.84066749     0.11500
H426        H  0.09504185  0.93620394  0.87403356     0.12600
H427        H  0.35037015  0.58317538  0.83552905     0.11700
H428        H  0.34502686  0.58826823  0.86889004     0.10900
H429        H  0.38120926  0.56771902  0.89946559     0.16300
H430        H  0.05602861  0.96730899  0.90256644     0.12200
H431        H  0.05797422  0.95795968  0.81128048     0.15100
H432        H  0.39569082  0.55363499  0.80753652     0.14800
C433        C  0.30260454  0.14378010  0.55219349    -0.18000
C434        C  0.30231085  0.14542416  0.57126712    -0.20200
C435        C  0.27716299  0.18595839  0.58049633     0.20400
C436        C  0.25260540  0.22554162  0.57038884    -0.03100
C437        C  0.25330461  0.22409864  0.55116136    -0.06200
C438        C  0.27821859  0.18287383  0.54201635     0.20700
C439        C  0.22932411  0.26409433  0.54110413     0.18900
C440        C  0.20442036  0.30476436  0.55028480    -0.17700
C441        C  0.20340583  0.30601618  0.56932050    -0.19900
C442        C  0.22762184  0.26680836  0.57947801     0.20400
C443        C  0.22802431  0.26866281  0.59855738    -0.32900
C444        C  0.25199394  0.22922255  0.60873268     0.01100
C445        C  0.27604549  0.18765354  0.59963023    -0.24200
C446        C  0.27834647  0.18160249  0.52287708    -0.28800
C447        C  0.25536840  0.22193558  0.51282768     0.06700
C448        C  0.23110495  0.26307107  0.52203863    -0.27500
H449        H  0.32127637  0.11152155  0.54538817     0.11500
H450        H  0.32094141  0.11449050  0.57880657     0.12600
H451        H  0.18637066  0.33602351  0.54273176     0.11700
H452        H  0.18460536  0.33823973  0.57610593     0.10900
H453        H  0.20927536  0.30067674  0.60551591     0.16300
H454        H  0.29472222  0.15720785  0.60743084     0.12200
H455        H  0.29724967  0.14987430  0.51580723     0.15100
H456        H  0.21309403  0.29411200  0.51433725     0.14800
C457        C  0.32120523  0.34986240  0.57470056    -0.18000
C458        C  0.32568683  0.34483271  0.55569324    -0.20200
C459        C  0.30358076  0.38189630  0.54398856     0.22000
C460        C  0.24259704  0.02280579  0.55196579    -0.03100
C461        C  0.24571083  0.02094177  0.57115511    -0.06200
C462        C  0.29394175  0.39174347  0.58239593     0.20700
C463        C  0.21774870  0.05708251  0.58177119     0.18900
C464        C  0.18716770  0.09487115  0.57310271    -0.17700
C465        C  0.18446005  0.09698237  0.55405838    -0.19900
C466        C  0.21179879  0.06101739  0.54336627     0.20400
C467        C  0.20947843  0.06288972  0.52424569    -0.32900
C468        C  0.28684116  0.41622175  0.51343398     0.01100
C469        C  0.30822007  0.37776004  0.52483857    -0.24200
C470        C  0.28900606  0.39737834  0.60145761    -0.28800
C471        C  0.25101457  0.01626165  0.60940852     0.06700
C472        C  0.22123485  0.05499138  0.60084642    -0.27500
H473        H  0.33852120  0.32061013  0.58337982     0.11500
H474        H  0.34598036  0.31163998  0.55014115     0.12600
H475        H  0.16611226  0.12337383  0.58105321     0.11700
H476        H  0.16173125  0.12729320  0.54767090     0.10900
H477        H  0.18631141  0.09243970  0.51755450     0.16300
H478        H  0.32924241  0.34552989  0.51887653     0.12200
H479        H  0.30665100  0.36908795  0.61046159     0.15100
H480        H  0.19993137  0.08278720  0.60905241     0.14800
C481        C  0.55159952  0.14310415  0.57210365    -0.18000
C482        C  0.55213226  0.14193613  0.55300798    -0.20200
C483        C  0.52861326  0.18168955  0.54288195     0.20400
C484        C  0.50425653  0.22303897  0.55212553    -0.03100
C485        C  0.50329337  0.22399384  0.57138400    -0.06200
C486        C  0.52707128  0.18381231  0.58144057     0.20700
C487        C  0.97782600  0.26524886  0.57990516     0.18900
C488        C  0.95418107  0.30488188  0.56979038    -0.17700
C489        C  0.95567636  0.30406981  0.55075781    -0.19900
C490        C  0.98049894  0.26343182  0.54153447     0.20400
C491        C  0.98283014  0.26290517  0.52246964    -0.32900
C492        C  0.50675483  0.22184485  0.51369820     0.01100
C493        C  0.52898856  0.18091858  0.52370512    -0.24200
C494        C  0.52600357  0.18522997  0.60061721    -0.28800
C495        C  0.50283683  0.22716211  0.60980305     0.06700
C496        C  0.97806819  0.26685468  0.59897842    -0.27500
H497        H  0.56967197  0.11170894  0.57957443     0.11500
H498        H  0.57037719  0.10954916  0.54614386     0.12600
H499        H  0.93553793  0.33713093  0.57661004     0.11700
H500        H  0.93806980  0.33565848  0.54324491     0.10900
H501        H  0.96532133  0.29432183  0.51481659     0.16300
H502        H  0.54737557  0.14901242  0.51657795     0.12200
H503        H  0.54420665  0.15441497  0.60837187     0.15100
H504        H  0.95966868  0.29905023  0.60594374     0.14800
C505        C  0.96967455  0.51070253  0.56709020    -0.18000
C506        C  0.97482424  0.50654311  0.54818391    -0.20200
C507        C  0.00265514  0.46522896  0.54046880     0.20400
C508        C  0.52574746  0.42773260  0.55230168    -0.03100
C509        C  0.52088383  0.43223784  0.57146900    -0.06200
C510        C  0.99232346  0.47366453  0.57861182     0.20700
C511        C  0.52765506  0.97842986  0.58035437     0.18900
C512        C  0.55501383  0.94261468  0.56961275    -0.17700
C513        C  0.55226721  0.94491750  0.55058088    -0.19900
C514        C  0.52198830  0.98298092  0.54196405     0.20400
C515        C  0.51856356  0.98514634  0.52290703    -0.32900
C516        C  0.48878349  0.02379105  0.51431051     0.01100
C517        C  0.00889295  0.46161953  0.52154391    -0.24200
C518        C  0.98871716  0.47867376  0.59759729    -0.28800
C519        C  0.50264762  0.01242322  0.61010997     0.06700
C520        C  0.52971988  0.97601357  0.59947119    -0.27500
H521        H  0.94834263  0.54320548  0.57271391     0.11500
H522        H  0.95731732  0.53588405  0.53958905     0.12600
H523        H  0.57765950  0.91217720  0.57594805     0.11700
H524        H  0.57308309  0.91632739  0.54258477     0.10900
H525        H  0.53965092  0.95712741  0.51472004     0.16300
H526        H  0.99191253  0.49113921  0.51287731     0.12200
H527        H  0.96827848  0.51157985  0.60335713     0.15100
H528        H  0.55283824  0.94628013  0.60607447     0.14800
C529        C  0.30439872  0.14923851  0.36351388    -0.18000
C530        C  0.30276878  0.15073867  0.34446023    -0.20200
C531        C  0.27540310  0.19018913  0.33542827     0.20400
C532        C  0.25008034  0.22897297  0.34568584    -0.03100
C533        C  0.25212624  0.22769946  0.36490456    -0.06200
C534        C  0.27918619  0.18745689  0.37385665     0.20700
C535        C  0.22734756  0.26685274  0.37514403     0.18900
C536        C  0.20069147  0.30675657  0.36612356    -0.17700
C537        C  0.19856211  0.30795666  0.34708160    -0.19900
C538        C  0.22313915  0.26932104  0.33674964     0.20400
C539        C  0.22226574  0.27098479  0.31764583    -0.32900
C540        C  0.24696126  0.23219246  0.30736051     0.01100
C541        C  0.27295264  0.19159534  0.31633313    -0.24200
C542        C  0.28035071  0.18605394  0.39297887    -0.28800
C543        C  0.25622840  0.22530194  0.40322133     0.06700
C544        C  0.23016083  0.26575218  0.39421352    -0.27500
H545        H  0.32459123  0.11766414  0.37017631     0.11500
H546        H  0.32208138  0.12046403  0.33678629     0.12600
H547        H  0.18213319  0.33748549  0.37380318     0.11700
H548        H  0.17863822  0.33969628  0.34041849     0.10900
H549        H  0.20218322  0.30233496  0.31076714     0.16300
H550        H  0.29233186  0.16177249  0.30843559     0.12200
H551        H  0.30067937  0.15492020  0.39989190     0.15100
H552        H  0.21134866  0.29600089  0.40207987     0.14800
C553        C  0.31901300  0.34849419  0.36142572    -0.18000
C554        C  0.31462788  0.35330034  0.34244168    -0.20200
C555        C  0.29297989  0.39799773  0.33462688     0.20400
C556        C  0.24705975  0.02316877  0.34673687    -0.03100
C557        C  0.24544406  0.02511079  0.36595716    -0.06200
C558        C  0.30218578  0.38842868  0.37297573     0.20700
C559        C  0.21582196  0.06376338  0.37479971     0.18900
C560        C  0.18838429  0.10020309  0.36435823    -0.17700
C561        C  0.18965870  0.09805963  0.34531201    -0.19900
C562        C  0.21877951  0.05968864  0.33638062     0.20400
C563        C  0.22025143  0.05731679  0.31728581    -0.32900
C564        C  0.26722268  0.44865384  0.30790227     0.01100
C565        C  0.28749115  0.40293154  0.31559699    -0.24200
C566        C  0.30556138  0.38372705  0.39209477    -0.28800
C567        C  0.28970514  0.42464422  0.40347933     0.06700
C568        C  0.21420139  0.06530395  0.39391259    -0.27500
H569        H  0.33497660  0.31321241  0.36708232     0.11500
H570        H  0.32756133  0.32169468  0.33387678     0.12600
H571        H  0.16655703  0.13083432  0.37094208     0.11700
H572        H  0.16859897  0.12695627  0.33755169     0.10900
H573        H  0.19866325  0.08542247  0.30930670     0.16300
H574        H  0.29999264  0.37167984  0.30678355     0.12200
H575        H  0.32100361  0.34861826  0.39807929     0.15100
H576        H  0.19160234  0.09502498  0.40074650     0.14800
C577        C  0.05466274  0.14979854  0.34510541    -0.18000
C578        C  0.05543124  0.14851987  0.36416738    -0.20200
C579        C  0.02975188  0.18683460  0.37432168     0.20400
C580        C  0.50314237  0.22648235  0.36541024    -0.03100
C581        C  0.00179382  0.22794563  0.34595270    -0.06200
C582        C  0.02782226  0.18920629  0.33586925     0.20700
C583        C  0.47501237  0.26743400  0.33703183     0.18900
C584        C  0.44917249  0.30569890  0.34717851    -0.17700
C585        C  0.45046767  0.30479090  0.36623736    -0.19900
C586        C  0.47748835  0.26549505  0.37547203     0.20400
C587        C  0.47967436  0.26479935  0.39457937    -0.32900
C588        C  0.50588067  0.22479287  0.40379859     0.01100
C589        C  0.03019006  0.18570329  0.39344067    -0.24200
C590        C  0.02637697  0.19047643  0.31674581    -0.28800
C591        C  0.50075449  0.23040793  0.30776457     0.06700
C592        C  0.47514461  0.26895662  0.31792658    -0.27500
H593        H  0.07416841  0.11937574  0.33757859     0.11500
H594        H  0.07531659  0.11700356  0.37098666     0.12600
H595        H  0.42874375  0.33689932  0.34036002     0.11700
H596        H  0.43094545  0.33522699  0.37375886     0.10900
H597        H  0.46032192  0.29499167  0.40230089     0.16300
H598        H  0.05049198  0.15478239  0.40049249     0.12200
H599        H  0.04618119  0.16067907  0.30897113     0.15100
H600        H  0.45495594  0.30005007  0.31092886     0.14800
C601        C  0.07140764  0.34510408  0.36166742    -0.18000
C602        C  0.06761345  0.34994877  0.34265318    -0.20200
C603        C  0.04387783  0.39353991  0.33477662     0.20400
C604        C  0.52416688  0.43364511  0.34636413    -0.03100
C605        C  0.52829192  0.42868774  0.36553269    -0.06200
C606        C  0.05196500  0.38394556  0.37320286     0.20700
C607        C  0.46471397  0.06436933  0.37509726     0.18900
C608        C  0.43793486  0.10090795  0.36447556    -0.17700
C609        C  0.43997839  0.09859648  0.34542038    -0.19900
C610        C  0.46930597  0.06000611  0.33665142     0.20400
C611        C  0.47186878  0.05754462  0.31755417    -0.32900
C612        C  0.51770299  0.44515468  0.30809486     0.01100
C613        C  0.04001029  0.39903251  0.31569263    -0.24200
C614        C  0.05607577  0.37988153  0.39234611    -0.28800
C615        C  0.53785934  0.42029980  0.40382641     0.06700
C616        C  0.46253854  0.06609359  0.39423518    -0.27500
H617        H  0.08918125  0.31071507  0.36735694     0.11500
H618        H  0.08285438  0.31930649  0.33410384     0.12600
H619        H  0.41601286  0.13170150  0.37092261     0.11700
H620        H  0.41929735  0.12751179  0.33753308     0.10900
H621        H  0.45090881  0.08580839  0.30943686     0.16300
H622        H  0.05558767  0.36919653  0.30685239     0.12200
H623        H  0.07443682  0.34622937  0.39838942     0.15100
H624        H  0.44003962  0.09605092  0.40097453     0.14800
C625        C  0.34778546  0.19349043  0.05131006    -0.18000
C626        C  0.34784456  0.19434455  0.07040872    -0.20200
C627        C  0.30706242  0.21797093  0.08001776     0.20400
C628        C  0.26530735  0.23996858  0.07026126    -0.03100
C629        C  0.26505695  0.23873127  0.05102876    -0.06200
C630        C  0.30672295  0.21580968  0.04148584     0.20700
C631        C  0.22319413  0.26076466  0.04136431     0.18900
C632        C  0.18212700  0.28384910  0.05091594    -0.17700
C633        C  0.18245001  0.28522418  0.06993975    -0.19900
C634        C  0.22382322  0.26347739  0.07970647     0.20400
C635        C  0.22431810  0.26489345  0.09876583    -0.32900
C636        C  0.26599979  0.24381391  0.10861418     0.01100
C637        C  0.30743997  0.22055517  0.09916762    -0.24200
C638        C  0.30661440  0.21597778  0.02231865    -0.28800
C639        C  0.26469963  0.23759464  0.01265862     0.06700
C640        C  0.22309054  0.25955365  0.02230309    -0.27500
H641        H  0.38018726  0.17592811  0.04421598     0.11500
H642        H  0.38029061  0.17741773  0.07765902     0.12600
H643        H  0.14972397  0.30089532  0.04366721     0.11700
H644        H  0.15027339  0.30327768  0.07701838     0.10900
H645        H  0.19229944  0.28290251  0.10596606     0.16300
H646        H  0.33949227  0.20384904  0.10671161     0.12200
H647        H  0.33872966  0.19878604  0.01493775     0.15100
H648        H  0.19083185  0.27653471  0.01493792     0.14800
C649        C  0.33868696  0.44593043  0.05225446    -0.18000
C650        C  0.33812548  0.44673395  0.07134063    -0.20200
C651        C  0.29687673  0.47000291  0.08080039     0.20400
C652        C  0.26457644  0.98927377  0.07126224    -0.03100
C653        C  0.26439916  0.98887910  0.05201936    -0.06200
C654        C  0.29778340  0.46788709  0.04227051     0.20700
C655        C  0.22386913  0.01367004  0.04244067     0.18900
C656        C  0.18407286  0.03862327  0.05208297    -0.17700
C657        C  0.18436485  0.03920706  0.07110374    -0.19900
C658        C  0.22439351  0.01475291  0.08078138     0.20400
C659        C  0.22485845  0.01559218  0.09982967    -0.32900
C660        C  0.25548576  0.49603312  0.10939728     0.01100
C661        C  0.29713299  0.47312527  0.09992507    -0.24200
C662        C  0.29865637  0.46840490  0.02310380    -0.28800
C663        C  0.25702261  0.48948035  0.01315540     0.06700
C664        C  0.22378471  0.01331371  0.02337187    -0.27500
H665        H  0.37164647  0.42903364  0.04528975     0.11500
H666        H  0.37064786  0.43037691  0.07870162     0.12600
H667        H  0.15270054  0.05776634  0.04490755     0.11700
H668        H  0.15320920  0.05880931  0.07825343     0.10900
H669        H  0.19389035  0.03528110  0.10707145     0.16300
H670        H  0.32958690  0.45721296  0.10746225     0.12200
H671        H  0.33143294  0.45179896  0.01592537     0.15100
H672        H  0.19249672  0.03226118  0.01606774     0.14800
C673        C  0.06758533  0.21613155  0.05035948    -0.18000
C674        C  0.06858471  0.21401426  0.06938612    -0.20200
C675        C  0.02886827  0.23709336  0.07963477     0.20400
C676        C  0.46588663  0.26983374  0.07101517    -0.03100
C677        C  0.98665334  0.26470835  0.05142543    -0.06200
C678        C  0.02681581  0.24128682  0.04127862     0.20700
C679        C  0.41955734  0.29652895  0.04343973     0.18900
C680        C  0.38004883  0.31738113  0.05437714    -0.17700
C681        C  0.38324482  0.31468085  0.07342248    -0.19900
C682        C  0.42565147  0.29035086  0.08187444     0.20400
C683        C  0.42836158  0.28560678  0.10094791    -0.32900
C684        C  0.98898250  0.25657415  0.10895851     0.01100
C685        C  0.02942456  0.23462677  0.09870935    -0.24200
C686        C  0.02538939  0.24306408  0.02221694    -0.28800
C687        C  0.45652987  0.27761022  0.01351291     0.06700
C688        C  0.41631140  0.29810239  0.02429806    -0.27500
H689        H  0.09869144  0.19796793  0.04273909     0.11500
H690        H  0.10042894  0.19425284  0.07608689     0.12600
H691        H  0.34621500  0.33494892  0.04819079     0.11700
H692        H  0.35191395  0.33050552  0.08153581     0.10900
H693        H  0.39740003  0.30116663  0.10931266     0.16300
H694        H  0.06099936  0.21487692  0.10559023     0.12200
H695        H  0.05630805  0.22500884  0.01445261     0.15100
H696        H  0.38285008  0.31562484  0.01781375     0.14800
C697        C  0.38095227  0.56115121  0.07419710    -0.18000
C698        C  0.37787655  0.56317791  0.05511064    -0.20200
C699        C  0.41776327  0.54271047  0.04423968     0.20400
C700        C  0.46206608  0.02257083  0.05271919    -0.03100
C701        C  0.46405122  0.01906992  0.07192156    -0.06200
C702        C  0.42372414  0.53805391  0.08283381     0.20700
C703        C  0.02811645  0.98736996  0.08080066     0.18900
C704        C  0.06945649  0.96621316  0.07084130    -0.17700
C705        C  0.06959955  0.96851032  0.05180473    -0.19900
C706        C  0.02836462  0.99191727  0.04241642     0.20400
C707        C  0.02793523  0.99367226  0.02332051    -0.32900
C708        C  0.45745360  0.02720281  0.01435351     0.01100
C709        C  0.41474735  0.54396207  0.02503289    -0.24200
C710        C  0.42656763  0.53451526  0.10200856    -0.28800
C711        C  0.46757137  0.01021870  0.11019759     0.06700
C712        C  0.02746943  0.98464010  0.09986960    -0.27500
H713        H  0.34926325  0.57664326  0.08220818     0.11500
H714        H  0.34375409  0.57988255  0.04883691     0.12600
H715        H  0.10167573  0.94777963  0.07777597     0.11700
H716        H  0.10191464  0.95178981  0.04441779     0.10900
H717        H  0.05992615  0.97689050  0.01575875     0.16300
H718        H  0.38115753  0.56101834  0.01848557     0.12200
H719        H  0.39534385  0.54988494  0.11028722     0.15100
H720        H  0.05938324  0.96609047  0.10695952     0.14800
O721        O  0.03511739  0.99964790  0.19027140    -0.74600
O722        O  0.03290329  0.50257244  0.13811475    -0.74700
O723        O  0.03633282  0.57360415  0.16515246    -0.74700
O724        O  0.03094512  0.92664879  0.16425761    -0.74800
O725        O  0.43577322  0.93381150  0.16603760    -0.74700
O726        O  0.44248514  0.57836177  0.16858146    -0.74700
O727        O  0.43043410  0.00838648  0.14013553    -0.74700
O728        O  0.45292881  0.50018431  0.19320805    -0.74700
Ni729      Ni  0.04070014  0.49998239  0.16408389     1.25400
Ni730      Ni  0.44043987  0.50548291  0.16727466     1.25400
C731        C  0.99332449  0.00122280  0.19939703     0.87500
C732        C  0.47496209  0.50980663  0.13074522     0.87500
C733        C  0.99316876  0.59810904  0.16652858     0.87500
C734        C  0.98782016  0.90441693  0.16459733     0.87700
O735        O  0.03380395  0.75497704  0.19137083    -0.74600
O736        O  0.02945331  0.74848511  0.13899045    -0.74700
O737        O  0.03062416  0.82397715  0.16418467    -0.74700
O738        O  0.03387644  0.67808216  0.16617842    -0.74800
O739        O  0.43955519  0.68240568  0.16757292    -0.74700
O740        O  0.43574665  0.82919188  0.16633747    -0.74700
O741        O  0.43129940  0.75495575  0.14080435    -0.74700
O742        O  0.44297180  0.75834952  0.19299135    -0.74700
Ni743      Ni  0.03496445  0.75114264  0.16515140     1.25400
Ni744      Ni  0.43431513  0.75595218  0.16701251     1.25400
C745        C  0.99151254  0.75782580  0.20027325     0.87500
C746        C  0.98593874  0.75019955  0.13079209     0.87500
C747        C  0.98762802  0.84863001  0.16466417     0.87500
C748        C  0.99169793  0.65428599  0.16659983     0.87700
O749        O  0.29856867  0.99661898  0.19127092    -0.74600
O750        O  0.29903067  0.49727956  0.13807888    -0.74700
O751        O  0.29867145  0.56895246  0.16515700    -0.74700
O752        O  0.30053459  0.92135106  0.16562275    -0.74800
O753        O  0.21498256  0.92532803  0.16409097    -0.74700
O754        O  0.21308901  0.56985549  0.16590642    -0.74700
O755        O  0.22026428  0.99686892  0.13777348    -0.74700
O756        O  0.21632267  0.49292302  0.19092783    -0.74700
Ni757      Ni  0.30520269  0.99420107  0.16515542     1.25400
Ni758      Ni  0.21352297  0.99838964  0.16374286     1.25400
C759        C  0.25467506  0.99943358  0.19912244     0.87500
C760        C  0.26391498  0.99350139  0.12976236     0.87500
C761        C  0.25545307  0.59344965  0.16593788     0.87500
C762        C  0.25727017  0.89945228  0.16468929     0.87700
O763        O  0.20901696  0.75259894  0.19100217    -0.74600
O764        O  0.21440108  0.74540793  0.13885769    -0.74700
O765        O  0.21187660  0.67483547  0.16590458    -0.74700
O766        O  0.21301278  0.82149134  0.16399820    -0.74800
O767        O  0.29865532  0.81813220  0.16466949    -0.74700
O768        O  0.29741507  0.67245277  0.16720257    -0.74700
O769        O  0.29985735  0.74097694  0.13962307    -0.74700
O770        O  0.29457236  0.75064829  0.19219201    -0.74700
Ni771      Ni  0.20904762  0.74846240  0.16490254     1.25400
Ni772      Ni  0.30069514  0.74527795  0.16597095     1.25400
C773        C  0.25071661  0.75528363  0.20008519     0.87500
C774        C  0.25762653  0.74212155  0.13057850     0.87500
C775        C  0.25472677  0.64958236  0.16651084     0.87500
C776        C  0.25619665  0.84371519  0.16437452     0.87700
O777        O  0.99815403  0.96169541  0.22860269    -0.74600
O778        O  0.50283195  0.97074801  0.28088532    -0.74700
O779        O  0.42720917  0.96736590  0.25558034    -0.74700
O780        O  0.07372824  0.96555403  0.25401331    -0.74800
O781        O  0.08408591  0.51085402  0.25553104    -0.74700
O782        O  0.43781742  0.51220287  0.25679685    -0.74700
O783        O  0.01298887  0.49793651  0.28183632    -0.74700
O784        O  0.50760592  0.52556138  0.23043797    -0.74700
Ni785      Ni  0.50023318  0.96403211  0.25474784     1.25400
Ni786      Ni  0.51081225  0.51545984  0.25638293     1.25400
C787        C  0.49445549  0.00589840  0.21936622     0.87500
C788        C  0.50094039  0.01469600  0.28873784     0.87500
C789        C  0.40212388  0.01005046  0.25471022     0.87500
C790        C  0.09637115  0.00833281  0.25324011     0.87700
O791        O  0.99338884  0.72957338  0.23108984    -0.74600
O792        O  0.49543875  0.75662944  0.28252519    -0.74700
O793        O  0.42075830  0.74477530  0.25743681    -0.74700
O794        O  0.06746087  0.74343288  0.25623671    -0.74800
O795        O  0.06473783  0.82782134  0.25121110    -0.74700
O796        O  0.41867159  0.82903196  0.25210877    -0.74700
O797        O  0.99113174  0.84111814  0.27729876    -0.74700
O798        O  0.49109415  0.81579986  0.22602426    -0.74700
Ni799      Ni  0.49389193  0.74103239  0.25696003     1.25400
Ni800      Ni  0.49173090  0.83144550  0.25165552     1.25400
C801        C  0.49073351  0.76964234  0.22006335     0.87500
C802        C  0.49343881  0.80263815  0.28868173     0.87500
C803        C  0.39579094  0.78699096  0.25484619     0.87500
C804        C  0.09005572  0.78562285  0.25350078     0.87700
O805        O  0.25222855  0.96155424  0.22847971    -0.74600
O806        O  0.25043557  0.97057406  0.28066475    -0.74700
O807        O  0.17766692  0.96582773  0.25430242    -0.74700
O808        O  0.32395583  0.96673572  0.25494491    -0.74800
O809        O  0.33401807  0.51222686  0.25566671    -0.74700
O810        O  0.18779849  0.51142654  0.25531016    -0.74700
O811        O  0.26117482  0.50122819  0.28131100    -0.74700
O812        O  0.26057900  0.52242814  0.22952973    -0.74700
Ni813      Ni  0.25105754  0.96310151  0.25465282     1.25400
Ni814      Ni  0.26078611  0.51484517  0.25560385     1.25400
C815        C  0.25211863  0.00277988  0.21902793     0.87500
C816        C  0.24815232  0.01465920  0.28834367     0.87500
C817        C  0.15231043  0.00841267  0.25317319     0.87500
C818        C  0.34636770  0.00970090  0.25442705     0.87700
O819        O  0.24514238  0.81287758  0.22521812    -0.74600
O820        O  0.23850513  0.84247535  0.27679810    -0.74700
O821        O  0.31478764  0.82878959  0.25183883    -0.74700
O822        O  0.16866990  0.82755664  0.25016735    -0.74800
O823        O  0.17118230  0.74365524  0.25612787    -0.74700
O824        O  0.31737763  0.74461414  0.25732468    -0.74700
O825        O  0.24232281  0.75844586  0.28223443    -0.74700
O826        O  0.24710651  0.72896241  0.23108737    -0.74700
Ni827      Ni  0.24164657  0.83097367  0.25075585     1.25400
Ni828      Ni  0.24447505  0.74099278  0.25690243     1.25400
C829        C  0.24776313  0.76613145  0.21974334     0.87500
C830        C  0.23992730  0.80476238  0.28803689     0.87500
C831        C  0.33999245  0.78687798  0.25474450     0.87500
C832        C  0.14596047  0.78558464  0.25317778     0.87700
O833        O  0.98598239  0.98606098  0.43295683    -0.74600
O834        O  0.48717557  0.98337970  0.48532109    -0.74700
O835        O  0.41279480  0.98475489  0.45946414    -0.74700
O836        O  0.05906885  0.98499788  0.45871083    -0.74800
O837        O  0.11584479  0.46048036  0.45873010    -0.74700
O838        O  0.46955538  0.46044430  0.45878767    -0.74700
O839        O  0.04175226  0.46066655  0.48472350    -0.74700
O840        O  0.54245896  0.46052728  0.43288355    -0.74700
Ni841      Ni  0.48616439  0.98158000  0.45925872     1.25400
Ni842      Ni  0.54247458  0.46348822  0.45894840     1.25400
C843        C  0.48506962  0.02855145  0.42477761     0.87500
C844        C  0.54175089  0.41816165  0.49383335     0.87500
C845        C  0.38753712  0.02748167  0.45966123     0.87500
C846        C  0.08167669  0.02780595  0.45883376     0.87700
O847        O  0.04110707  0.87530299  0.45910690    -0.74600
O848        O  0.39497762  0.87427528  0.45981116    -0.74700
O849        O  0.96840203  0.87461583  0.48561554    -0.74700
O850        O  0.46758637  0.87457180  0.43333349    -0.74800
O851        O  0.97053081  0.79040215  0.43301631    -0.74700
O852        O  0.47178611  0.78798841  0.48553642    -0.74700
O853        O  0.39740089  0.78876054  0.45963232    -0.74700
O854        O  0.04367645  0.78978466  0.45884487    -0.74700
Ni855      Ni  0.46789858  0.87719775  0.45969739     1.25400
Ni856      Ni  0.47075191  0.78564224  0.45946395     1.25400
C857        C  0.06633937  0.83258356  0.45890438     0.87500
C858        C  0.37223472  0.83154365  0.45967062     0.87500
C859        C  0.47140846  0.83022404  0.49443166     0.87500
C860        C  0.46993053  0.83176097  0.42472794     0.87700
O861        O  0.29223274  0.45828894  0.48488783    -0.74600
O862        O  0.29250031  0.46274621  0.43290713    -0.74700
O863        O  0.21968262  0.46053443  0.45888012    -0.74700
O864        O  0.36593834  0.46033684  0.45896203    -0.74800
O865        O  0.30900203  0.98475553  0.45932278    -0.74700
O866        O  0.16277531  0.98515190  0.45856688    -0.74700
O867        O  0.23771158  0.98523717  0.43287415    -0.74700
O868        O  0.23534460  0.98464212  0.48495146    -0.74700
Ni869      Ni  0.29269185  0.46343091  0.45893916     1.25400
Ni870      Ni  0.23609777  0.98190855  0.45891619     1.25400
C871        C  0.23396447  0.02710853  0.49367917     0.87500
C872        C  0.23709414  0.02796331  0.42431118     0.87500
C873        C  0.13752914  0.02787094  0.45866759     0.87500
C874        C  0.33167881  0.02751362  0.45951878     0.87700
O875        O  0.21743316  0.87424707  0.48549810    -0.74600
O876        O  0.21861593  0.87558981  0.43284987    -0.74700
O877        O  0.14497818  0.87528195  0.45898441    -0.74700
O878        O  0.29128958  0.87453734  0.45943323    -0.74800
O879        O  0.29352019  0.78901977  0.45918625    -0.74700
O880        O  0.14729221  0.78977003  0.45867698    -0.74700
O881        O  0.22160612  0.79020500  0.43281406    -0.74700
O882        O  0.22023103  0.78886154  0.48498038    -0.74700
Ni883      Ni  0.21796468  0.87802974  0.45919197     1.25400
Ni884      Ni  0.22055196  0.78647675  0.45889491     1.25400
C885        C  0.21957547  0.83111689  0.49388256     0.87500
C886        C  0.22110865  0.83291194  0.42418137     0.87500
C887        C  0.12218866  0.83256016  0.45882324     0.87500
C888        C  0.31636248  0.83170832  0.45944306     0.87700
O889        O  0.41061869  0.52925813  0.98550015    -0.74600
O890        O  0.41066251  0.02893437  0.93329971    -0.74700
O891        O  0.41216836  0.95604003  0.95961993    -0.74700
O892        O  0.41128095  0.60326338  0.95955139    -0.74800
O893        O  0.02366442  0.58749697  0.95947061    -0.74700
O894        O  0.02803249  0.94110906  0.95914813    -0.74700
O895        O  0.02281456  0.51649947  0.93255042    -0.74700
O896        O  0.02831811  0.01451253  0.98509352    -0.74700
Ni897      Ni  0.40686447  0.53044775  0.95912771     1.25400
Ni898      Ni  0.02617594  0.51441301  0.95872208     1.25400
C899        C  0.45373118  0.52638375  0.99396689     0.87500
C900        C  0.45223732  0.52904340  0.92406320     0.87500
C901        C  0.45513752  0.93114420  0.95948262     0.87500
C902        C  0.45450601  0.62529537  0.95958100     0.87700
O903        O  0.41425109  0.77682854  0.93306788    -0.74600
O904        O  0.41189321  0.78106021  0.98577263    -0.74700
O905        O  0.41273832  0.85232297  0.95885084    -0.74700
O906        O  0.41253728  0.70638836  0.95998414    -0.74800
O907        O  0.02501169  0.69101201  0.95969962    -0.74700
O908        O  0.02707634  0.83720729  0.95970583    -0.74700
O909        O  0.02396524  0.76393626  0.98579385    -0.74700
O910        O  0.02852919  0.76398788  0.93353646    -0.74700
Ni911      Ni  0.40976146  0.77935478  0.95939382     1.25400
Ni912      Ni  0.02916408  0.76397878  0.95971845     1.25400
C913        C  0.45756154  0.77602371  0.92470137     0.87500
C914        C  0.45462270  0.77846107  0.99447935     0.87500
C915        C  0.45544708  0.87522734  0.95938787     0.87500
C916        C  0.45520476  0.68111820  0.95978055     0.87700
O917        O  0.30115199  0.48786836  0.93190664    -0.74600
O918        O  0.30480101  0.98749326  0.98442524    -0.74700
O919        O  0.30064501  0.91392023  0.95878284    -0.74700
O920        O  0.30018180  0.56141073  0.95803827    -0.74800
O921        O  0.21455380  0.56326031  0.95799495    -0.74700
O922        O  0.21504165  0.91777256  0.95971861    -0.74700
O923        O  0.21499553  0.49043492  0.98417823    -0.74700
O924        O  0.21396085  0.98982791  0.93317741    -0.74700
Ni925      Ni  0.30512142  0.98666986  0.95825533     1.25400
Ni926      Ni  0.21347133  0.99095912  0.95931149     1.25400
C927        C  0.25591005  0.98702527  0.92408460     0.87500
C928        C  0.26283063  0.98964716  0.99349914     0.87500
C929        C  0.25742083  0.89195293  0.95939015     0.87500
C930        C  0.25720363  0.58630931  0.95798553     0.87700
O931        O  0.21449152  0.73976952  0.98513773    -0.74600
O932        O  0.21274803  0.74139740  0.93279366    -0.74700
O933        O  0.21392812  0.66721059  0.95866877    -0.74700
O934        O  0.21376899  0.81361272  0.95924946    -0.74800
O935        O  0.29941543  0.81097222  0.95962114    -0.74700
O936        O  0.29950924  0.66517786  0.95762292    -0.74700
O937        O  0.29823823  0.74181255  0.93237813    -0.74700
O938        O  0.29995992  0.73495926  0.98489011    -0.74700
Ni939      Ni  0.21067784  0.74051625  0.95897778     1.25400
Ni940      Ni  0.30233611  0.73808120  0.95861587     1.25400
C941        C  0.25737461  0.73690712  0.99368047     0.87500
C942        C  0.25507714  0.74295568  0.92394941     0.87500
C943        C  0.25682891  0.64222488  0.95804918     0.87500
C944        C  0.25672706  0.83620168  0.95949768     0.87700
O945        O  0.44881673  0.00448672  0.72630475    -0.74600
O946        O  0.43380361  0.50999925  0.77707103    -0.74700
O947        O  0.44300447  0.57854364  0.74972274    -0.74700
O948        O  0.43952167  0.93277822  0.75280970    -0.74800
O949        O  0.03708024  0.92713413  0.75428169    -0.74700
O950        O  0.03812883  0.57360165  0.75204775    -0.74700
O951        O  0.03404112  0.00017755  0.78020455    -0.74700
O952        O  0.04297245  0.49603277  0.72705158    -0.74700
Ni953      Ni  0.43938552  0.50557471  0.75082316     1.25400
Ni954      Ni  0.04116467  0.50028711  0.75322492     1.25400
C955        C  0.49660024  0.49637760  0.71811228     0.87500
C956        C  0.47369059  0.50915919  0.78733828     0.87500
C957        C  0.48551180  0.60136271  0.75158226     0.87500
C958        C  0.48206599  0.90757588  0.75441920     0.87700
O959        O  0.44591229  0.75924614  0.72640530    -0.74600
O960        O  0.43620305  0.75200891  0.77875672    -0.74700
O961        O  0.43977467  0.82846968  0.75365056    -0.74700
O962        O  0.44211331  0.68219228  0.75125480    -0.74800
O963        O  0.03781156  0.67786184  0.75203544    -0.74700
O964        O  0.03691021  0.82405071  0.75388969    -0.74700
O965        O  0.03712280  0.74892800  0.77919840    -0.74700
O966        O  0.03783942  0.75440213  0.72686367    -0.74700
Ni967      Ni  0.43792765  0.75536189  0.75246270     1.25400
Ni968      Ni  0.04044587  0.75104875  0.75301768     1.25400
C969        C  0.49021613  0.76025288  0.71885613     0.87500
C970        C  0.47740777  0.75261702  0.78831615     0.87500
C971        C  0.48228834  0.85173388  0.75449007     0.87500
C972        C  0.48511099  0.65745690  0.75208216     0.87700
O973        O  0.21100790  0.99949662  0.72702115    -0.74600
O974        O  0.21393174  0.50154068  0.77799538    -0.74700
O975        O  0.21383584  0.57247004  0.75104527    -0.74700
O976        O  0.21042559  0.92626503  0.75322444    -0.74800
O977        O  0.29611216  0.92402244  0.75304166    -0.74700
O978        O  0.29945784  0.56986669  0.75129091    -0.74700
O979        O  0.29567060  0.99541882  0.77943616    -0.74700
O980        O  0.29895991  0.49454597  0.72554756    -0.74700
Ni981      Ni  0.21035029  0.49955008  0.75177371     1.25400
Ni982      Ni  0.30207157  0.49627721  0.75167271     1.25400
C983        C  0.25616859  0.49331673  0.71703683     0.87500
C984        C  0.25275492  0.99642657  0.78795661     0.87500
C985        C  0.25666776  0.59521650  0.75111335     0.87500
C986        C  0.25328401  0.90125497  0.75325781     0.87700
O987        O  0.20992440  0.75346277  0.72672356    -0.74600
O988        O  0.21319707  0.74576567  0.77886315    -0.74700
O989        O  0.21096532  0.82226068  0.75387249    -0.74700
O990        O  0.21306939  0.67596684  0.75157603    -0.74800
O991        O  0.29868616  0.67480972  0.75144392    -0.74700
O992        O  0.29660296  0.82097895  0.75291853    -0.74700
O993        O  0.29868756  0.74654999  0.77851471    -0.74700
O994        O  0.29555303  0.75134615  0.72597850    -0.74700
Ni995      Ni  0.20877878  0.74919712  0.75279506     1.25400
Ni996      Ni  0.30049118  0.74810923  0.75219626     1.25400
C997        C  0.25205192  0.75545358  0.71785912     0.87500
C998        C  0.25615164  0.74612979  0.78733364     0.87500
C999        C  0.25354691  0.84551674  0.75341794     0.87500
C1000       C  0.25622154  0.65133802  0.75129843     0.87700
O1001       O  0.50410279  0.52445454  0.68730237    -0.74600
O1002       O  0.50843037  0.49768242  0.63578661    -0.74700
O1003       O  0.43355109  0.51058699  0.66099696    -0.74700
O1004       O  0.07989926  0.50919817  0.66107503    -0.74800
O1005       O  0.07847303  0.96344053  0.66400626    -0.74700
O1006       O  0.43189457  0.96473803  0.66372436    -0.74700
O1007       O  0.50713738  0.96673394  0.63831678    -0.74700
O1008       O  0.50241216  0.96245016  0.69068685    -0.74700
Ni1009     Ni  0.50658575  0.51385511  0.66132796     1.25400
Ni1010     Ni  0.50507587  0.96144946  0.66445932     1.25400
C1011       C  0.50285895  0.48669492  0.69841836     0.87500
C1012       C  0.51112281  0.45153863  0.62978423     0.87500
C1013       C  0.41089185  0.46824736  0.66340066     0.87500
C1014       C  0.10512452  0.46704771  0.66361619     0.87700
O1015       O  0.49546066  0.72921530  0.68836393    -0.74600
O1016       O  0.49942904  0.75202585  0.63661593    -0.74700
O1017       O  0.07108190  0.74078677  0.66218508    -0.74700
O1018       O  0.42454471  0.74120318  0.66169795    -0.74800
O1019       O  0.42235153  0.82567876  0.66657207    -0.74700
O1020       O  0.06843536  0.82539335  0.66671208    -0.74700
O1021       O  0.49570185  0.83653930  0.64106400    -0.74700
O1022       O  0.49429176  0.81381247  0.69285176    -0.74700
Ni1023     Ni  0.49766900  0.73755121  0.66229473     1.25400
Ni1024     Ni  0.49535066  0.82817307  0.66713877     1.25400
C1025       C  0.49372585  0.76796171  0.69907896     0.87500
C1026       C  0.49734787  0.79786187  0.63029040     0.87500
C1027       C  0.09373024  0.78312058  0.66452537     0.87500
C1028       C  0.39953937  0.78356538  0.66391962     0.87700
O1029       O  0.25594890  0.52259957  0.68628951    -0.74600
O1030       O  0.25736255  0.49578176  0.63478396    -0.74700
O1031       O  0.18363043  0.50908368  0.66051850    -0.74700
O1032       O  0.32976375  0.50977634  0.66054063    -0.74800
O1033       O  0.32838529  0.96467184  0.66331916    -0.74700
O1034       O  0.18224301  0.96409362  0.66321727    -0.74700
O1035       O  0.25556811  0.96886777  0.63715579    -0.74700
O1036       O  0.25530016  0.96030895  0.68938296    -0.74700
Ni1037     Ni  0.25657412  0.51230108  0.66031446     1.25400
Ni1038     Ni  0.25547271  0.96140513  0.66319715     1.25400
C1039       C  0.25652170  0.48455129  0.69731189     0.87500
C1040       C  0.26045432  0.44952949  0.62885954     0.87500
C1041       C  0.16101122  0.46688540  0.66316729     0.87500
C1042       C  0.35509553  0.46787159  0.66331347     0.87700
O1043       O  0.24803911  0.81158116  0.69244901    -0.74600
O1044       O  0.24301487  0.83870584  0.64083079    -0.74700
O1045       O  0.17243984  0.82519615  0.66729416    -0.74700
O1046       O  0.31859939  0.82581226  0.66609996    -0.74800
O1047       O  0.32109047  0.74139579  0.66109817    -0.74700
O1048       O  0.17481987  0.74107439  0.66173810    -0.74700
O1049       O  0.24687305  0.75448820  0.63574876    -0.74700
O1050       O  0.24979039  0.72737219  0.68708361    -0.74700
Ni1051     Ni  0.24543567  0.82836845  0.66687716     1.25400
Ni1052     Ni  0.24814589  0.73811980  0.66120506     1.25400
C1053       C  0.25008533  0.76513275  0.69818341     0.87500
C1054       C  0.24443393  0.80063276  0.62976535     0.87500
C1055       C  0.14965931  0.78311908  0.66456392     0.87500
C1056       C  0.34375726  0.78365276  0.66362229     0.87700
C1057       C  0.17632572  0.69794301  0.86493939    -0.18000
C1058       C  0.17681643  0.69798280  0.84586020    -0.20200
C1059       C  0.21516362  0.72344643  0.83627864     0.20400
C1060       C  0.25272692  0.75014111  0.84601137    -0.03100
C1061       C  0.25208182  0.75029725  0.86529674    -0.06200
C1062       C  0.21409030  0.72347352  0.87478512     0.20700
C1063       C  0.28974150  0.77677777  0.87506420     0.18900
C1064       C  0.32606504  0.80494267  0.86544928    -0.17700
C1065       C  0.32696793  0.80445707  0.84634637    -0.19900
C1066       C  0.29119343  0.77625033  0.83649324     0.20400
C1067       C  0.29316008  0.77358278  0.81733403    -0.32900
C1068       C  0.25594211  0.74678531  0.80755569     0.01100
C1069       C  0.21666055  0.72250945  0.81714592    -0.24200
C1070       C  0.21486492  0.72213637  0.89393321    -0.28800
C1071       C  0.25379542  0.74623009  0.90375625     0.06700
C1072       C  0.29082478  0.77395360  0.89422434    -0.27500
H1073       H  0.14663952  0.67750262  0.87199782     0.11500
H1074       H  0.14746187  0.67764640  0.83859776     0.12600
H1075       H  0.35487686  0.82599730  0.87271696     0.11700
H1076       H  0.35642805  0.82521148  0.83928744     0.10900
H1077       H  0.32294081  0.79323864  0.81000941     0.16300
H1078       H  0.18764623  0.70217257  0.80969260     0.12200
H1079       H  0.18592057  0.70117490  0.90119996     0.15100
H1080       H  0.32022269  0.79359376  0.90173962     0.14800
C1081       C  0.33493394  0.94126872  0.86489326    -0.18000
C1082       C  0.33449981  0.94260428  0.84583651    -0.20200
C1083       C  0.29354874  0.96663042  0.83646866     0.20400
C1084       C  0.25190578  0.98824202  0.84637355    -0.03100
C1085       C  0.25220600  0.98661968  0.86559872    -0.06200
C1086       C  0.29425589  0.96358840  0.87488917     0.20700
C1087       C  0.21667175  0.51563246  0.87440604     0.18900
C1088       C  0.17591732  0.53980751  0.86496872    -0.17700
C1089       C  0.17570211  0.54128942  0.84589840    -0.19900
C1090       C  0.21623842  0.51864253  0.83591274     0.20400
C1091       C  0.21608852  0.51969444  0.81676314    -0.32900
C1092       C  0.25245119  0.99370241  0.80806245     0.01100
C1093       C  0.29382152  0.97003234  0.81739249    -0.24200
C1094       C  0.29520442  0.96392988  0.89399941    -0.28800
C1095       C  0.25414928  0.98596908  0.90395888     0.06700
C1096       C  0.21692596  0.51366201  0.89353811    -0.27500
H1097       H  0.36753915  0.92352654  0.87182105     0.11500
H1098       H  0.36673049  0.92581351  0.83843367     0.12600
H1099       H  0.14407364  0.55746585  0.87234046     0.11700
H1100       H  0.14367687  0.56004369  0.83895430     0.10900
H1101       H  0.18414663  0.53798513  0.80960979     0.16300
H1102       H  0.32600394  0.95380772  0.80979021     0.12200
H1103       H  0.32782996  0.94684315  0.90113512     0.15100
H1104       H  0.18513658  0.53083491  0.90109217     0.14800
C1105       C  0.39976646  0.70069694  0.84713661    -0.18000
C1106       C  0.39740114  0.70365176  0.86620417    -0.20200
C1107       C  0.42994100  0.73599069  0.87585078     0.20400
C1108       C  0.46646874  0.76430231  0.86618810    -0.03100
C1109       C  0.46935002  0.76075085  0.84694982    -0.06200
C1110       C  0.43531716  0.72934976  0.83734643     0.20700
C1111       C  0.03254500  0.77591111  0.83683460     0.18900
C1112       C  0.06959614  0.80318890  0.84643513    -0.17700
C1113       C  0.06836320  0.80561328  0.86551293    -0.19900
C1114       C  0.03013841  0.78069644  0.87536016     0.20400
C1115       C  0.02803329  0.78364106  0.89450339    -0.32900
C1116       C  0.45953515  0.77288635  0.90451399     0.01100
C1117       C  0.42622170  0.74102235  0.89492680    -0.24200
C1118       C  0.43733827  0.72736365  0.81815657    -0.28800
C1119       C  0.47439413  0.75475982  0.80851877     0.06700
C1120       C  0.03287344  0.77409794  0.81766917    -0.27500
H1121       H  0.37311840  0.67673768  0.84001025     0.11500
H1122       H  0.36903421  0.68176238  0.87338744     0.12600
H1123       H  0.09936638  0.82295922  0.83918106     0.11700
H1124       H  0.09720269  0.82721928  0.87256286     0.10900
H1125       H  0.05635388  0.80533291  0.90180198     0.16300
H1126       H  0.39808946  0.71941313  0.90236830     0.12200
H1127       H  0.41079189  0.70383602  0.81074255     0.15100
H1128       H  0.06219267  0.79393241  0.81018651     0.14800
C1129       C  0.06627861  0.46800695  0.84709024    -0.18000
C1130       C  0.06515527  0.46995243  0.86612483    -0.20200
C1131       C  0.02402757  0.49443147  0.87522987     0.20400
C1132       C  0.45889082  0.52123193  0.86526976    -0.03100
C1133       C  0.46185482  0.51811715  0.84601041    -0.06200
C1134       C  0.02633380  0.49056296  0.83680673     0.20700
C1135       C  0.42033996  0.03487883  0.83619046     0.18900
C1136       C  0.37868236  0.06012012  0.84480152    -0.17700
C1137       C  0.37618815  0.06309563  0.86386741    -0.19900
C1138       C  0.41545835  0.04118828  0.87468079     0.20400
C1139       C  0.41342904  0.04389429  0.89384152    -0.32900
C1140       C  0.45341286  0.52678170  0.90376564     0.01100
C1141       C  0.02271400  0.49614491  0.89432962    -0.24200
C1142       C  0.02738828  0.48860708  0.81770397    -0.28800
C1143       C  0.46836025  0.51170732  0.80754980     0.06700
C1144       C  0.42320641  0.03139807  0.81706027    -0.27500
H1145       H  0.09850551  0.44883929  0.84040337     0.11500
H1146       H  0.09651635  0.45223712  0.87373438     0.12600
H1147       H  0.34775035  0.07711613  0.83679428     0.11700
H1148       H  0.34335076  0.08230521  0.87015796     0.10900
H1149       H  0.38096507  0.06289883  0.90046066     0.16300
H1150       H  0.05398803  0.47857076  0.90203906     0.12200
H1151       H  0.05958367  0.46965522  0.81090605     0.15100
H1152       H  0.39289249  0.04844568  0.80875788     0.14800
C1153       C  0.28054491  0.74191096  0.54911857    -0.18000
C1154       C  0.28491882  0.73814232  0.56804341    -0.20200
C1155       C  0.26275764  0.77600472  0.57933184     0.20400
C1156       C  0.23644546  0.81850267  0.57151038    -0.03100
C1157       C  0.23206041  0.82234582  0.55233881    -0.06200
C1158       C  0.25401338  0.78364983  0.54116149     0.20700
C1159       C  0.20565875  0.86464200  0.54437339     0.18900
C1160       C  0.18365882  0.90252220  0.55575511    -0.17700
C1161       C  0.18771390  0.89854251  0.57478528    -0.19900
C1162       C  0.21419687  0.85678714  0.58282937     0.20400
C1163       C  0.21842118  0.85219202  0.60193671    -0.32900
C1164       C  0.24339600  0.80898139  0.60976458     0.01100
C1165       C  0.26582396  0.77148976  0.59831429    -0.24200
C1166       C  0.24903756  0.78710349  0.52220355    -0.28800
C1167       C  0.22324457  0.82914751  0.51405396     0.06700
C1168       C  0.20200473  0.86821508  0.52521720    -0.27500
H1169       H  0.29774993  0.71200003  0.54069431     0.11500
H1170       H  0.30533490  0.70535154  0.57386333     0.12600
H1171       H  0.16396101  0.93567874  0.54992878     0.11700
H1172       H  0.17068194  0.92853588  0.58321502     0.10900
H1173       H  0.20096308  0.88125024  0.61067782     0.16300
H1174       H  0.28555189  0.73837827  0.60422365     0.12200
H1175       H  0.26601352  0.75716785  0.51371382     0.15100
H1176       H  0.18205407  0.90077501  0.51903399     0.14800
C1177       C  0.30414514  0.94692403  0.56903063    -0.18000
C1178       C  0.30104982  0.94875647  0.55002637    -0.20200
C1179       C  0.27029340  0.98637715  0.54139804     0.22000
C1180       C  0.27616656  0.42411026  0.55162969    -0.03100
C1181       C  0.27126916  0.42896373  0.57075656    -0.06200
C1182       C  0.27658403  0.98271343  0.57970443     0.20700
C1183       C  0.24391342  0.47141198  0.57820847     0.18900
C1184       C  0.22115155  0.50810982  0.56660840    -0.17700
C1185       C  0.22598512  0.50332503  0.54774379    -0.19900
C1186       C  0.25365876  0.46176107  0.54016690     0.20400
C1187       C  0.25942567  0.45768737  0.52129122    -0.32900
C1188       C  0.23629243  0.02601471  0.51372912     0.01100
C1189       C  0.26632041  0.98778020  0.52238643    -0.24200
C1190       C  0.27845598  0.98020374  0.59877540    -0.28800
C1191       C  0.26281670  0.44052600  0.60890544     0.06700
C1192       C  0.24021241  0.47700022  0.59713600    -0.27500
H1193       H  0.32715859  0.91680155  0.57540066     0.11500
H1194       H  0.32193701  0.92013891  0.54206795     0.12600
H1195       H  0.19988800  0.54078237  0.57213686     0.11700
H1196       H  0.20833285  0.53238990  0.53906539     0.10900
H1197       H  0.24212381  0.48701627  0.51261543     0.16300
H1198       H  0.28731640  0.95953743  0.51426739     0.12200
H1199       H  0.30155473  0.95042388  0.60536823     0.15100
H1200       H  0.21965120  0.51002812  0.60275343     0.14800
C1201       C  0.53967326  0.73691390  0.56833341    -0.18000
C1202       C  0.53560977  0.74132887  0.54940068    -0.20200
C1203       C  0.50809853  0.78265610  0.54155601     0.20400
C1204       C  0.48490165  0.82031581  0.55286311    -0.03100
C1205       C  0.48910062  0.81589810  0.57203011    -0.06200
C1206       C  0.51635085  0.77378176  0.57975421     0.20700
C1207       C  0.96484476  0.85458679  0.58299639     0.18900
C1208       C  0.93691648  0.89560999  0.57507119    -0.17700
C1209       C  0.93303618  0.90007807  0.55605640    -0.19900
C1210       C  0.95673102  0.86345173  0.54457720     0.20400
C1211       C  0.95311059  0.86746927  0.52543605    -0.32900
C1212       C  0.47602337  0.82813759  0.51458876     0.01100
C1213       C  0.50315372  0.78663172  0.52259097    -0.24200
C1214       C  0.51929893  0.76877991  0.59875836    -0.28800
C1215       C  0.49616123  0.80569048  0.61026692     0.06700
C1216       C  0.96896253  0.84959395  0.60207579    -0.27500
H1217       H  0.56083296  0.70444080  0.57405151     0.11500
H1218       H  0.55376285  0.71218982  0.54088059     0.12600
H1219       H  0.91865303  0.92468346  0.58358774     0.11700
H1220       H  0.91212346  0.93263500  0.55032145     0.10900
H1221       H  0.93179474  0.89932698  0.51934951     0.16300
H1222       H  0.52093159  0.75742531  0.51398373     0.12200
H1223       H  0.53965880  0.73599263  0.60463076     0.15100
H1224       H  0.95031974  0.87779274  0.61087163     0.14800
C1225       C  0.93743901  0.09044003  0.57333517    -0.18000
C1226       C  0.93513855  0.09307142  0.55431053    -0.20200
C1227       C  0.96310556  0.05770559  0.54358309     0.20400
C1228       C  0.49411609  0.01910077  0.55260266    -0.03100
C1229       C  0.49692458  0.01679944  0.57181122    -0.06200
C1230       C  0.96817824  0.05270117  0.58193931     0.20700
C1231       C  0.54328617  0.39460219  0.58301873     0.18900
C1232       C  0.57016467  0.35268158  0.57521454    -0.17700
C1233       C  0.57455569  0.34798385  0.55620407    -0.19900
C1234       C  0.55276394  0.38541305  0.54458397     0.20400
C1235       C  0.55732347  0.38138632  0.52543832    -0.32900
C1236       C  0.53638096  0.42003180  0.51401950     0.01100
C1237       C  0.96141616  0.06040460  0.52448831    -0.24200
C1238       C  0.97163411  0.05054859  0.60098396    -0.28800
C1239       C  0.51296845  0.44299171  0.60973771     0.06700
C1240       C  0.53860239  0.39982262  0.60210965    -0.27500
H1241       H  0.91606173  0.11860936  0.58132713     0.11500
H1242       H  0.91233466  0.12339589  0.54797068     0.12600
H1243       H  0.58725936  0.32312241  0.58381390     0.11700
H1244       H  0.59447957  0.31468042  0.55057726     0.10900
H1245       H  0.57794228  0.34891065  0.51947047     0.16300
H1246       H  0.93822103  0.09006188  0.51787188     0.12200
H1247       H  0.95020166  0.07825798  0.60918737     0.15100
H1248       H  0.55611285  0.37118352  0.61100390     0.14800
C1249       C  0.28067537  0.74570896  0.36832773    -0.18000
C1250       C  0.28387884  0.74223070  0.34937120    -0.20200
C1251       C  0.26098230  0.78022644  0.33831875     0.20400
C1252       C  0.23513958  0.82259336  0.34639086    -0.03100
C1253       C  0.23196733  0.82616397  0.36560802    -0.06200
C1254       C  0.25459710  0.78729479  0.37655627     0.20700
C1255       C  0.20597808  0.86827043  0.37384755     0.18900
C1256       C  0.18330330  0.90632533  0.36268818    -0.17700
C1257       C  0.18618043  0.90262127  0.34361160    -0.19900
C1258       C  0.21211747  0.86096113  0.33528083     0.20400
C1259       C  0.21509545  0.85652367  0.31610813    -0.32900
C1260       C  0.23966701  0.81338637  0.30805231     0.01100
C1261       C  0.26287792  0.77591315  0.31932534    -0.24200
C1262       C  0.25052967  0.79028265  0.39555751    -0.28800
C1263       C  0.22489289  0.83198301  0.40398259     0.06700
C1264       C  0.20322319  0.87136625  0.39304390    -0.27500
H1265       H  0.29836416  0.71565272  0.37656331     0.11500
H1266       H  0.30392718  0.70952163  0.34334252     0.12600
H1267       H  0.16390751  0.93936400  0.36872155     0.11700
H1268       H  0.16867589  0.93275501  0.33536506     0.10900
H1269       H  0.19707583  0.88561681  0.30752189     0.16300
H1270       H  0.28236953  0.74288976  0.31326248     0.12200
H1271       H  0.26782581  0.76010674  0.40385954     0.15100
H1272       H  0.18339906  0.90368212  0.39943248     0.14800
C1273       C  0.30237668  0.94986711  0.36739398    -0.18000
C1274       C  0.30413126  0.94804391  0.34834487    -0.20200
C1275       C  0.27639035  0.98430385  0.33790021     0.20400
C1276       C  0.27682541  0.43874197  0.34608708    -0.03100
C1277       C  0.28151582  0.43400151  0.36522252    -0.06200
C1278       C  0.27296443  0.98804236  0.37630920     0.20700
C1279       C  0.26548533  0.47496299  0.37657647     0.18900
C1280       C  0.24512234  0.52020857  0.36880533    -0.17700
C1281       C  0.24047453  0.52488867  0.34990256    -0.19900
C1282       C  0.25612695  0.48440385  0.33844608     0.20400
C1283       C  0.25172801  0.48909952  0.31948027    -0.32900
C1284       C  0.24828195  0.01793425  0.30842497     0.01100
C1285       C  0.27627535  0.98154961  0.31879780    -0.24200
C1286       C  0.26967440  0.98914235  0.39537736    -0.28800
C1287       C  0.24037483  0.02763100  0.40424983     0.06700
C1288       C  0.27001014  0.47012628  0.39552109    -0.27500
H1289       H  0.32300571  0.92066577  0.37516776     0.11500
H1290       H  0.32600124  0.91743173  0.34177365     0.12600
H1291       H  0.23273254  0.55203676  0.37736203     0.11700
H1292       H  0.22465158  0.56023000  0.34423939     0.10900
H1293       H  0.23608912  0.52441689  0.31371745     0.16300
H1294       H  0.29817202  0.95129419  0.31198255     0.12200
H1295       H  0.29021046  0.96024305  0.40334984     0.15100
H1296       H  0.25739747  0.50179598  0.40412630     0.14800
C1297       C  0.03479889  0.74089862  0.35003336    -0.18000
C1298       C  0.03077274  0.74467160  0.36896253    -0.20200
C1299       C  0.00446711  0.78645683  0.37697612     0.20400
C1300       C  0.48194790  0.82370262  0.36621373    -0.03100
C1301       C  0.98641579  0.82135830  0.34667408    -0.06200
C1302       C  0.01253118  0.77881403  0.33879742     0.20700
C1303       C  0.46371174  0.85831496  0.33577116     0.18900
C1304       C  0.43744890  0.90010854  0.34389844    -0.17700
C1305       C  0.43378254  0.90406093  0.36294448    -0.19900
C1306       C  0.45588516  0.86608871  0.37426718     0.20400
C1307       C  0.45257821  0.86959257  0.39344375    -0.32900
C1308       C  0.47377983  0.83034881  0.40453969     0.01100
C1309       C  0.99969552  0.78978806  0.39593554    -0.24200
C1310       C  0.01527225  0.77425480  0.31981356    -0.28800
C1311       C  0.49264251  0.81066705  0.30872432     0.06700
C1312       C  0.46781123  0.85387225  0.31664784    -0.27500
H1313       H  0.05501470  0.70805363  0.34416959     0.11500
H1314       H  0.04802736  0.71469564  0.37734686     0.12600
H1315       H  0.42041232  0.93020729  0.33552176     0.11700
H1316       H  0.41434340  0.93729550  0.36882893     0.10900
H1317       H  0.43280204  0.90216444  0.39969146     0.16300
H1318       H  0.01669332  0.75973430  0.40436845     0.12200
H1319       H  0.03481262  0.74108341  0.31387398     0.15100
H1320       H  0.45039686  0.88309127  0.30796433     0.14800
C1321       C  0.05170801  0.95054343  0.36804704    -0.18000
C1322       C  0.05414098  0.94837896  0.34902828    -0.20200
C1323       C  0.02694657  0.98453531  0.33839023     0.20400
C1324       C  0.49676579  0.02332251  0.34718383    -0.03100
C1325       C  0.49434120  0.02541555  0.36640169    -0.06200
C1326       C  0.02195532  0.98885178  0.37673532     0.20700
C1327       C  0.50908036  0.46826482  0.37691393     0.18900
C1328       C  0.48527653  0.51190323  0.36917450    -0.17700
C1329       C  0.48122125  0.51680316  0.35026452    -0.19900
C1330       C  0.50088502  0.47813873  0.33875536     0.20400
C1331       C  0.49812129  0.48366165  0.31977322    -0.32900
C1332       C  0.50019084  0.01793470  0.30885291     0.01100
C1333       C  0.02774601  0.98145076  0.31930239    -0.24200
C1334       C  0.01801582  0.99018630  0.39575506    -0.28800
C1335       C  0.48822698  0.02830550  0.40469577     0.06700
C1336       C  0.51427128  0.46391995  0.39585135    -0.27500
H1337       H  0.07209395  0.92149414  0.37597055     0.11500
H1338       H  0.07611029  0.91755991  0.34262230     0.12600
H1339       H  0.47010094  0.54250096  0.37776003     0.11700
H1340       H  0.46302966  0.55108323  0.34463121     0.10900
H1341       H  0.48058507  0.51819428  0.31405771     0.16300
H1342       H  0.04985020  0.95101992  0.31266433     0.12200
H1343       H  0.03835847  0.96138760  0.40383616     0.15100
H1344       H  0.49947071  0.49468259  0.40445873     0.14800
C1345       C  0.33885707  0.68970311  0.05273929    -0.18000
C1346       C  0.33871093  0.68992017  0.07184916    -0.20200
C1347       C  0.29815824  0.71368313  0.08152935     0.20400
C1348       C  0.25684518  0.73660447  0.07178718    -0.03100
C1349       C  0.25677040  0.73595598  0.05248730    -0.06200
C1350       C  0.29818398  0.71270593  0.04291417     0.20700
C1351       C  0.21561753  0.75924138  0.04279077     0.18900
C1352       C  0.17511666  0.78316712  0.05243110    -0.17700
C1353       C  0.17527350  0.78396826  0.07150824    -0.19900
C1354       C  0.21592075  0.76082283  0.08130730     0.20400
C1355       C  0.21651840  0.76190662  0.10044640    -0.32900
C1356       C  0.25797735  0.74005867  0.11031216     0.01100
C1357       C  0.29876085  0.71603378  0.10072334    -0.24200
C1358       C  0.29855279  0.71356990  0.02372161    -0.28800
C1359       C  0.25737299  0.73626458  0.01394918     0.06700
C1360       C  0.21586919  0.75863013  0.02363683    -0.27500
H1361       H  0.37134197  0.67239294  0.04562594     0.11500
H1362       H  0.37110029  0.67280333  0.07906482     0.12600
H1363       H  0.14328390  0.80137199  0.04520995     0.11700
H1364       H  0.14354462  0.80276266  0.07860388     0.10900
H1365       H  0.18497054  0.78061291  0.10768643     0.16300
H1366       H  0.33069834  0.69884712  0.10819267     0.12200
H1367       H  0.33061641  0.69612153  0.01638853     0.15100
H1368       H  0.18413534  0.77650759  0.01624803     0.14800
C1369       C  0.34478129  0.93948110  0.05212610    -0.18000
C1370       C  0.34477579  0.93955754  0.07124203    -0.20200
C1371       C  0.30507899  0.96473042  0.08095550     0.20400
C1372       C  0.25502346  0.49124057  0.07092774    -0.03100
C1373       C  0.25542374  0.49006707  0.05164756    -0.06200
C1374       C  0.30489482  0.96421734  0.04238101     0.20700
C1375       C  0.21364233  0.51146422  0.04177379     0.18900
C1376       C  0.17182526  0.53362296  0.05123520    -0.17700
C1377       C  0.17148205  0.53489100  0.07031750    -0.19900
C1378       C  0.21294225  0.51399834  0.08030073     0.20400
C1379       C  0.21318842  0.51572279  0.09946604    -0.32900
C1380       C  0.26525695  0.99203276  0.10963140     0.01100
C1381       C  0.30547278  0.96672007  0.10013698    -0.24200
C1382       C  0.30489083  0.96526932  0.02320582    -0.28800
C1383       C  0.26419325  0.98954511  0.01363692     0.06700
C1384       C  0.21447346  0.51051423  0.02262612    -0.27500
H1385       H  0.37637009  0.92068818  0.04495770     0.11500
H1386       H  0.37638739  0.92087364  0.07842765     0.12600
H1387       H  0.13935571  0.55010314  0.04386971     0.11700
H1388       H  0.13876973  0.55233475  0.07726946     0.10900
H1389       H  0.18084784  0.53316507  0.10664572     0.16300
H1390       H  0.33660238  0.94820963  0.10765493     0.12200
H1391       H  0.33604482  0.94661557  0.01573955     0.15100
H1392       H  0.18230100  0.52695532  0.01507560     0.14800
C1393       C  0.06464651  0.71582646  0.05188637    -0.18000
C1394       C  0.06537937  0.71318938  0.07091750    -0.20200
C1395       C  0.02482307  0.73465706  0.08117552     0.20400
C1396       C  0.46307513  0.76677399  0.07245156    -0.03100
C1397       C  0.98220620  0.76159423  0.05289410    -0.06200
C1398       C  0.02334334  0.73997136  0.04276547     0.20700
C1399       C  0.41622807  0.79148334  0.04467727     0.18900
C1400       C  0.37521830  0.80950723  0.05555278    -0.17700
C1401       C  0.37785057  0.80616844  0.07462884    -0.19900
C1402       C  0.42122285  0.78399327  0.08321749     0.20400
C1403       C  0.42361236  0.77867522  0.10232796    -0.32900
C1404       C  0.98426932  0.75243822  0.11058062     0.01100
C1405       C  0.02541544  0.73202822  0.10028339    -0.24200
C1406       C  0.02248349  0.74256158  0.02368249    -0.28800
C1407       C  0.45573090  0.77651972  0.01476450     0.06700
C1408       C  0.41370765  0.79364473  0.02546208    -0.27500
H1409       H  0.09648553  0.69895479  0.04428879     0.11500
H1410       H  0.09777341  0.69436535  0.07761863     0.12600
H1411       H  0.34075749  0.82557194  0.04929782     0.11700
H1412       H  0.34544238  0.81998373  0.08265187     0.10900
H1413       H  0.39144253  0.79188591  0.11060160     0.16300
H1414       H  0.05773267  0.71353584  0.10715749     0.12200
H1415       H  0.05429954  0.72590280  0.01600015     0.15100
H1416       H  0.37943274  0.80907049  0.01887420     0.14800
C1417       C  0.37970769  0.06066189  0.07383892    -0.18000
C1418       C  0.37747540  0.06356035  0.05478073    -0.20200
C1419       C  0.41822464  0.04421606  0.04407781     0.20400
C1420       C  0.46135750  0.52022085  0.05277709    -0.03100
C1421       C  0.46429532  0.51781472  0.07204585    -0.06200
C1422       C  0.42239220  0.03762943  0.08254049     0.20700
C1423       C  0.02494760  0.48242521  0.08075946     0.18900
C1424       C  0.06366624  0.45730568  0.07057908    -0.17700
C1425       C  0.06254076  0.45836555  0.05150562    -0.19900
C1426       C  0.02266053  0.48453891  0.04225539     0.20400
C1427       C  0.02152142  0.48614163  0.02310959    -0.32900
C1428       C  0.45544714  0.52413832  0.01426444     0.01100
C1429       C  0.41587506  0.04577720  0.02491940    -0.24200
C1430       C  0.42415988  0.03259337  0.10162666    -0.28800
C1431       C  0.47015214  0.51214871  0.11052297     0.06700
C1432       C  0.02601339  0.48178568  0.09989804    -0.27500
H1433       H  0.34749403  0.07542488  0.08175950     0.11500
H1434       H  0.34350196  0.08027614  0.04840038     0.12600
H1435       H  0.09500157  0.43697814  0.07737354     0.11700
H1436       H  0.09303036  0.43885067  0.04398470     0.10900
H1437       H  0.05200406  0.46720015  0.01539275     0.16300
H1438       H  0.38199981  0.06183153  0.01825089     0.12200
H1439       H  0.39219557  0.04679082  0.10980622     0.15100
H1440       H  0.05731839  0.46184287  0.10686658     0.14800
O1441       O  0.53791954  0.49967542  0.18957068    -0.74600
O1442       O  0.51566279  0.00378976  0.13767414    -0.74700
O1443       O  0.52314208  0.07648327  0.16344458    -0.74700
O1444       O  0.52873962  0.43056310  0.16266541    -0.74800
O1445       O  0.95260734  0.42871310  0.16481318    -0.74700
O1446       O  0.94741315  0.07608512  0.16524103    -0.74700
O1447       O  0.94752084  0.50576688  0.13988105    -0.74700
O1448       O  0.94951602  0.00257602  0.19143311    -0.74700
Ni1449     Ni  0.52535183  0.00333736  0.16350162     1.25400
Ni1450     Ni  0.94347889  0.00323589  0.16524515     1.25400
C1451       C  0.49849697  0.49685347  0.19984378     0.87500
C1452       C  0.98633410  0.00259138  0.12998180     0.87500
C1453       C  0.48072833  0.10211019  0.16458406     0.87500
C1454       C  0.48610326  0.40763449  0.16415827     0.87700
O1455       O  0.53201086  0.25092339  0.18884883    -0.74600
O1456       O  0.51979327  0.25411639  0.13676260    -0.74700
O1457       O  0.52771396  0.32586543  0.16301924    -0.74700
O1458       O  0.52447560  0.17980922  0.16257165    -0.74800
O1459       O  0.94871780  0.17977660  0.16376624    -0.74700
O1460       O  0.95160598  0.32581613  0.16462149    -0.74700
O1461       O  0.94802183  0.25501037  0.13805686    -0.74700
O1462       O  0.95193623  0.25091493  0.19027840    -0.74700
Ni1463     Ni  0.52904160  0.25258050  0.16269947     1.25400
Ni1464     Ni  0.94699087  0.25300449  0.16420111     1.25400
C1465       C  0.49117523  0.25105267  0.19854011     0.87500
C1466       C  0.47530310  0.25800147  0.12936157     0.87500
C1467       C  0.48549250  0.35174593  0.16425605     0.87500
C1468       C  0.48138012  0.15785971  0.16389510     0.87700
O1469       O  0.80736157  0.49028873  0.19134281    -0.74600
O1470       O  0.81965476  0.98791496  0.14017905    -0.74700
O1471       O  0.81395302  0.06381702  0.16562149    -0.74700
O1472       O  0.81167088  0.41918824  0.16466722    -0.74800
O1473       O  0.72611976  0.41972170  0.16329810    -0.74700
O1474       O  0.72865244  0.06774216  0.16284215    -0.74700
O1475       O  0.72681458  0.49498564  0.13799192    -0.74700
O1476       O  0.71905624  0.99718049  0.18931743    -0.74700
Ni1477     Ni  0.81269639  0.49237285  0.16527715     1.25400
Ni1478     Ni  0.72106282  0.49282907  0.16415913     1.25400
C1479       C  0.76391460  0.48821067  0.19938425     0.87500
C1480       C  0.77045549  0.49332607  0.12988208     0.87500
C1481       C  0.77173269  0.08967667  0.16413552     0.87500
C1482       C  0.76941727  0.39548059  0.16381049     0.87700
O1483       O  0.72046024  0.24344070  0.18821510    -0.74600
O1484       O  0.73634121  0.24303105  0.13640493    -0.74700
O1485       O  0.72939262  0.17035232  0.16230771    -0.74700
O1486       O  0.72790664  0.31634493  0.16227585    -0.74800
O1487       O  0.81323648  0.31481779  0.16491947    -0.74700
O1488       O  0.81454539  0.16839829  0.16565954    -0.74700
O1489       O  0.82151261  0.23984006  0.13918881    -0.74700
O1490       O  0.80565845  0.24264924  0.19136681    -0.74700
Ni1491     Ni  0.72555500  0.24338179  0.16217544     1.25400
Ni1492     Ni  0.81686145  0.24148133  0.16541041     1.25400
C1493       C  0.76046917  0.24292362  0.19828588     0.87500
C1494       C  0.78111178  0.24070192  0.12920436     0.87500
C1495       C  0.77206967  0.14545707  0.16400546     0.87500
C1496       C  0.77032616  0.33955268  0.16360152     0.87700
O1497       O  0.50925334  0.44126573  0.22530198    -0.74600
O1498       O  0.01685598  0.41359816  0.27704450    -0.74700
O1499       O  0.94049262  0.42538319  0.25198416    -0.74700
O1500       O  0.58631131  0.42828892  0.25023260    -0.74800
O1501       O  0.57139932  0.05182318  0.25277609    -0.74700
O1502       O  0.92478316  0.05063133  0.25357681    -0.74700
O1503       O  0.49898241  0.05611839  0.27938621    -0.74700
O1504       O  0.99624240  0.04715902  0.22708063    -0.74700
Ni1505     Ni  0.01368247  0.42300054  0.25099354     1.25400
Ni1506     Ni  0.99768655  0.05405183  0.25307015     1.25400
C1507       C  0.00711291  0.48482402  0.21940378     0.87500
C1508       C  0.01576451  0.45193829  0.28798408     0.87500
C1509       C  0.91530778  0.46762609  0.25428169     0.87500
C1510       C  0.60926468  0.47028968  0.25291948     0.87700
O1511       O  0.49724916  0.20241854  0.22579823    -0.74600
O1512       O  0.00254016  0.19192583  0.27812207    -0.74700
O1513       O  0.92726920  0.19546382  0.25269252    -0.74700
O1514       O  0.57297408  0.19656626  0.25108826    -0.74800
O1515       O  0.57104503  0.28188832  0.25336933    -0.74700
O1516       O  0.92443010  0.28095995  0.25409703    -0.74700
O1517       O  0.49889680  0.27735147  0.27996178    -0.74700
O1518       O  0.99618665  0.28595386  0.22764993    -0.74700
Ni1519     Ni  0.00046946  0.19296722  0.25193402     1.25400
Ni1520     Ni  0.99737230  0.28452258  0.25375117     1.25400
C1521       C  0.99671704  0.24468257  0.21825665     0.87500
C1522       C  0.00058391  0.23336974  0.28750872     0.87500
C1523       C  0.90193685  0.23803814  0.25357038     0.87500
C1524       C  0.59599323  0.23910587  0.25201604     0.87700
O1525       O  0.76313452  0.43611521  0.22574217    -0.74600
O1526       O  0.76419771  0.41639883  0.27762928    -0.74700
O1527       O  0.69008956  0.42703052  0.25158801    -0.74700
O1528       O  0.83651541  0.42563327  0.25170884    -0.74800
O1529       O  0.82148629  0.05018678  0.25355011    -0.74700
O1530       O  0.67544580  0.05071920  0.25193265    -0.74700
O1531       O  0.74599063  0.05519419  0.27881746    -0.74700
O1532       O  0.75143902  0.04492856  0.22660232    -0.74700
Ni1533     Ni  0.76343113  0.42325655  0.25151912     1.25400
Ni1534     Ni  0.74843942  0.05330127  0.25263807     1.25400
C1535       C  0.76273875  0.48161122  0.21919701     0.87500
C1536       C  0.76363354  0.45564138  0.28814215     0.87500
C1537       C  0.66524752  0.46976178  0.25322999     0.87500
C1538       C  0.85950165  0.46782020  0.25399568     0.87700
O1539       O  0.75170050  0.28343009  0.22712896    -0.74600
O1540       O  0.74485370  0.27795707  0.27938761    -0.74700
O1541       O  0.82103190  0.28052546  0.25431834    -0.74700
O1542       O  0.67497230  0.28133179  0.25225778    -0.74800
O1543       O  0.67696793  0.19579777  0.25148923    -0.74700
O1544       O  0.82340351  0.19503469  0.25284640    -0.74700
O1545       O  0.74867936  0.19254197  0.27825518    -0.74700
O1546       O  0.75289592  0.19791299  0.22607646    -0.74700
Ni1547     Ni  0.74796378  0.28386785  0.25330736     1.25400
Ni1548     Ni  0.75038062  0.19224885  0.25212204     1.25400
C1549       C  0.75448574  0.24144804  0.21809994     0.87500
C1550       C  0.74644113  0.23431813  0.28742325     0.87500
C1551       C  0.84613504  0.23779521  0.25368026     0.87500
C1552       C  0.65197575  0.23871035  0.25181562     0.87700
O1553       O  0.54535549  0.37515832  0.43251026    -0.74600
O1554       O  0.04493313  0.37526045  0.48504147    -0.74700
O1555       O  0.97205647  0.37506237  0.45865686    -0.74700
O1556       O  0.61838109  0.37506574  0.45897969    -0.74800
O1557       O  0.55638696  0.07012930  0.45950495    -0.74700
O1558       O  0.91014524  0.07060697  0.45960428    -0.74700
O1559       O  0.48353610  0.06879172  0.48593631    -0.74700
O1560       O  0.98260382  0.07150247  0.43321889    -0.74700
Ni1561     Ni  0.04532324  0.37195464  0.45867615     1.25400
Ni1562     Ni  0.98307036  0.07356385  0.45942192     1.25400
C1563       C  0.04246033  0.41803299  0.42382348     0.87500
C1564       C  0.98612447  0.02593435  0.49384849     0.87500
C1565       C  0.94688572  0.41781967  0.45864946     0.87500
C1566       C  0.64103341  0.41788288  0.45901192     0.87700
O1567       O  0.57951397  0.26589166  0.45872786    -0.74600
O1568       O  0.93341346  0.26587967  0.45866760    -0.74700
O1569       O  0.50633251  0.26483336  0.48499058    -0.74700
O1570       O  0.00545563  0.26655932  0.43239663    -0.74800
O1571       O  0.50935190  0.18109044  0.43239470    -0.74700
O1572       O  0.00979519  0.17929649  0.48432353    -0.74700
O1573       O  0.93591442  0.18036686  0.45828915    -0.74700
O1574       O  0.58231410  0.18037676  0.45849047    -0.74700
Ni1575     Ni  0.00634124  0.26873209  0.45849574     1.25400
Ni1576     Ni  0.00925923  0.17713195  0.45815174     1.25400
C1577       C  0.60485467  0.22323475  0.45853525     0.87500
C1578       C  0.91071049  0.22312505  0.45847204     0.87500
C1579       C  0.00804210  0.22180717  0.49305646     0.87500
C1580       C  0.00678369  0.22414010  0.42361752     0.87700
O1581       O  0.73188892  0.07019808  0.48540887    -0.74600
O1582       O  0.73408658  0.07052846  0.43303713    -0.74700
O1583       O  0.66009147  0.07043866  0.45892632    -0.74700
O1584       O  0.80635492  0.07045049  0.45955635    -0.74800
O1585       O  0.86831804  0.37509462  0.45838813    -0.74700
O1586       O  0.72210183  0.37525388  0.45852463    -0.74700
O1587       O  0.79498559  0.37747457  0.43207864    -0.74700
O1588       O  0.79529574  0.37344261  0.48484788    -0.74700
Ni1589     Ni  0.73301420  0.07350552  0.45922688     1.25400
Ni1590     Ni  0.79535791  0.37217542  0.45842496     1.25400
C1591       C  0.79247925  0.41594588  0.49364933     0.87500
C1592       C  0.79267775  0.42111735  0.42397784     0.87500
C1593       C  0.69690569  0.41797296  0.45892339     0.87500
C1594       C  0.89105180  0.41784290  0.45871972     0.87700
O1595       O  0.75598676  0.26532147  0.48453711    -0.74600
O1596       O  0.75597154  0.26698231  0.43239652    -0.74700
O1597       O  0.68332276  0.26620399  0.45848978    -0.74700
O1598       O  0.82963248  0.26594200  0.45850353    -0.74800
O1599       O  0.83215279  0.18042783  0.45821720    -0.74700
O1600       O  0.68595053  0.18068580  0.45816935    -0.74700
O1601       O  0.75936629  0.18154925  0.43199846    -0.74700
O1602       O  0.75923162  0.17989760  0.48435713    -0.74700
Ni1603     Ni  0.75628240  0.26914984  0.45848792     1.25400
Ni1604     Ni  0.75923120  0.17755102  0.45816548     1.25400
C1605       C  0.75718689  0.22248405  0.49305525     0.87500
C1606       C  0.75727718  0.22460998  0.42359264     0.87500
C1607       C  0.66069360  0.22338887  0.45838077     0.87500
C1608       C  0.85484439  0.22318478  0.45840467     0.87700
O1609       O  0.94277463  0.01760447  0.98515422    -0.74600
O1610       O  0.93732098  0.51992851  0.93246639    -0.74700
O1611       O  0.93746856  0.44411807  0.95800529    -0.74700
O1612       O  0.94305255  0.09009023  0.95895633    -0.74800
O1613       O  0.49643703  0.10051894  0.95895804    -0.74700
O1614       O  0.49418431  0.45348448  0.95851238    -0.74700
O1615       O  0.49619899  0.02620405  0.93315293    -0.74700
O1616       O  0.49605698  0.52493500  0.98505952    -0.74700
Ni1617     Ni  0.93970890  0.01729118  0.95899520     1.25400
Ni1618     Ni  0.50012585  0.02723181  0.95919055     1.25400
C1619       C  0.98559096  0.01608844  0.99374394     0.87500
C1620       C  0.98553932  0.01457775  0.92424805     0.87500
C1621       C  0.98032379  0.41892014  0.95781918     0.87500
C1622       C  0.98588654  0.11277590  0.95888152     0.87700
O1623       O  0.94124321  0.26300631  0.93200604    -0.74600
O1624       O  0.94025441  0.26887745  0.98435511    -0.74700
O1625       O  0.93874227  0.33931627  0.95730326    -0.74700
O1626       O  0.94224365  0.19311643  0.95904100    -0.74800
O1627       O  0.49538075  0.20444077  0.95823275    -0.74700
O1628       O  0.49376799  0.35053990  0.95834591    -0.74700
O1629       O  0.49610990  0.27711445  0.98430617    -0.74700
O1630       O  0.49292006  0.27781203  0.93224022    -0.74700
Ni1631     Ni  0.93751375  0.26614639  0.95816618     1.25400
Ni1632     Ni  0.49753764  0.27747759  0.95825205     1.25400
C1633       C  0.98432001  0.26290168  0.92357586     0.87500
C1634       C  0.98307532  0.26738253  0.99295499     0.87500
C1635       C  0.98103727  0.36296034  0.95768379     0.87500
C1636       C  0.98543421  0.16868433  0.95881479     0.87700
O1637       O  0.82864538  0.97165490  0.93253401    -0.74600
O1638       O  0.82838020  0.47422312  0.98492356    -0.74700
O1639       O  0.83109448  0.40194374  0.95843225    -0.74700
O1640       O  0.83324226  0.04590821  0.95833078    -0.74800
O1641       O  0.74767856  0.05052345  0.95913745    -0.74700
O1642       O  0.74550906  0.40265304  0.95804741    -0.74700
O1643       O  0.74735200  0.97854792  0.98554372    -0.74700
O1644       O  0.74427512  0.47732399  0.93222492    -0.74700
Ni1645     Ni  0.83230061  0.47499707  0.95862009     1.25400
Ni1646     Ni  0.74067465  0.47595907  0.95831370     1.25400
C1647       C  0.78702348  0.47753420  0.92361153     0.87500
C1648       C  0.78518009  0.47475956  0.99333403     0.87500
C1649       C  0.78881419  0.37830936  0.95825933     0.87500
C1650       C  0.79108339  0.07216703  0.95852440     0.87700
O1651       O  0.74977917  0.22663381  0.98443814    -0.74600
O1652       O  0.74737944  0.22548297  0.93229181    -0.74700
O1653       O  0.74903032  0.15310246  0.95860685    -0.74700
O1654       O  0.74745961  0.29899893  0.95816258    -0.74800
O1655       O  0.83306285  0.29775225  0.95856136    -0.74700
O1656       O  0.83458640  0.15101175  0.95745557    -0.74700
O1657       O  0.83288785  0.22684057  0.93181935    -0.74700
O1658       O  0.83526717  0.22249522  0.98419573    -0.74700
Ni1659     Ni  0.74542595  0.22604860  0.95839043     1.25400
Ni1660     Ni  0.83709539  0.22439682  0.95798008     1.25400
C1661       C  0.79272833  0.22462956  0.99294899     0.87500
C1662       C  0.78970311  0.22708416  0.92347885     0.87500
C1663       C  0.79182237  0.12807328  0.95813710     0.87500
C1664       C  0.78990399  0.32236306  0.95833273     0.87700
O1665       O  0.95751163  0.49740592  0.72522034    -0.74600
O1666       O  0.94857922  0.00502334  0.77880275    -0.74700
O1667       O  0.95324933  0.07622163  0.75222947    -0.74700
O1668       O  0.95261344  0.42948741  0.75279624    -0.74800
O1669       O  0.52680327  0.42968157  0.75526206    -0.74700
O1670       O  0.52563364  0.07618441  0.75566608    -0.74700
O1671       O  0.51878006  0.50584765  0.78034591    -0.74700
O1672       O  0.53394318  0.00277912  0.72968552    -0.74700
Ni1673     Ni  0.94927087  0.00339985  0.75264266     1.25400
Ni1674     Ni  0.52823103  0.00306313  0.75579901     1.25400
C1675       C  0.00010325  0.00097286  0.71878333     0.87500
C1676       C  0.99019151  0.00280812  0.78809660     0.87500
C1677       C  0.99625185  0.09856883  0.75307970     0.87500
C1678       C  0.99544204  0.40441597  0.75357430     0.87700
O1679       O  0.95559605  0.25246313  0.72646037    -0.74600
O1680       O  0.95168303  0.25106674  0.77877411    -0.74700
O1681       O  0.95305460  0.32538072  0.75297815    -0.74700
O1682       O  0.95372997  0.17930645  0.75237304    -0.74800
O1683       O  0.52598579  0.17989857  0.75573008    -0.74700
O1684       O  0.52655704  0.32600409  0.75464121    -0.74700
O1685       O  0.51863931  0.25532942  0.78113102    -0.74700
O1686       O  0.53386598  0.25044201  0.72909822    -0.74700
Ni1687     Ni  0.95044104  0.25226153  0.75260165     1.25400
Ni1688     Ni  0.52932160  0.25285798  0.75525670     1.25400
C1689       C  0.99908958  0.24976847  0.71833877     0.87500
C1690       C  0.99396520  0.25085469  0.78768899     0.87500
C1691       C  0.99572608  0.34845019  0.75334781     0.87500
C1692       C  0.99654759  0.15433684  0.75299785     0.87700
O1693       O  0.71943258  0.49388340  0.72695698    -0.74600
O1694       O  0.72558740  0.99682907  0.78045446    -0.74700
O1695       O  0.72216808  0.07029002  0.75439864    -0.74700
O1696       O  0.72343875  0.42376169  0.75393199    -0.74800
O1697       O  0.80889889  0.42125694  0.75184670    -0.74700
O1698       O  0.80776143  0.06740984  0.75313740    -0.74700
O1699       O  0.81328147  0.49503864  0.77759042    -0.74700
O1700       O  0.80335090  0.99557073  0.72672282    -0.74700
Ni1701     Ni  0.71854758  0.99737861  0.75442979     1.25400
Ni1702     Ni  0.81020531  0.99418671  0.75276860     1.25400
C1703       C  0.75937035  0.99737589  0.71895896     0.87500
C1704       C  0.77202178  0.49676620  0.78709740     0.87500
C1705       C  0.76510950  0.09278536  0.75371605     0.87500
C1706       C  0.76609004  0.39855873  0.75293627     0.87700
O1707       O  0.71760309  0.24700617  0.72800884    -0.74600
O1708       O  0.72768004  0.24609257  0.78011121    -0.74700
O1709       O  0.72304968  0.31999894  0.75416509    -0.74700
O1710       O  0.72252842  0.17378556  0.75405968    -0.74800
O1711       O  0.80811177  0.17136021  0.75265711    -0.74700
O1712       O  0.80842898  0.31750446  0.75165891    -0.74700
O1713       O  0.81312327  0.24602503  0.77821679    -0.74700
O1714       O  0.80308455  0.24304555  0.72602631    -0.74700
Ni1715     Ni  0.71965068  0.24691765  0.75415318     1.25400
Ni1716     Ni  0.81125615  0.24441311  0.75204900     1.25400
C1717       C  0.75873624  0.24446304  0.71850153     0.87500
C1718       C  0.77190474  0.24577710  0.78772237     0.87500
C1719       C  0.76583701  0.34269471  0.75293844     0.87500
C1720       C  0.76529486  0.14863357  0.75348906     0.87700
O1721       O  0.00246907  0.04610589  0.69090097    -0.74600
O1722       O  0.00207668  0.05147704  0.63875369    -0.74700
O1723       O  0.92960332  0.04870314  0.66477941    -0.74700
O1724       O  0.57585789  0.04978541  0.66572838    -0.74800
O1725       O  0.58207614  0.42660808  0.66750877    -0.74700
O1726       O  0.93627825  0.42427881  0.66574735    -0.74700
O1727       O  0.01144157  0.41204599  0.64027229    -0.74700
O1728       O  0.00736974  0.43798658  0.69201047    -0.74700
Ni1729     Ni  0.00251366  0.05185826  0.66485373     1.25400
Ni1730     Ni  0.00947652  0.42181170  0.66634828     1.25400
C1731       C  0.00264242  0.00252364  0.69889446     0.87500
C1732       C  0.00381188  0.00971015  0.62958492     0.87500
C1733       C  0.90693003  0.00595137  0.66392947     0.87500
C1734       C  0.60094570  0.00696032  0.66546292     0.87700
O1735       O  0.00226527  0.20117765  0.69109202    -0.74600
O1736       O  0.00449615  0.18956011  0.63889388    -0.74700
O1737       O  0.57633608  0.19532821  0.66636799    -0.74700
O1738       O  0.93029342  0.19496334  0.66468435    -0.74800
O1739       O  0.92768623  0.28036932  0.66270388    -0.74700
O1740       O  0.57410798  0.28059261  0.66381326    -0.74700
O1741       O  0.00068802  0.27481973  0.63677104    -0.74700
O1742       O  0.00030290  0.28651283  0.68880639    -0.74700
Ni1743     Ni  0.00348039  0.19215563  0.66508133     1.25400
Ni1744     Ni  0.00068091  0.28359208  0.66267877     1.25400
C1745       C  0.00067647  0.24570254  0.69846428     0.87500
C1746       C  0.00243750  0.23051396  0.62924404     0.87500
C1747       C  0.59919335  0.23788513  0.66506094     0.87500
C1748       C  0.90507048  0.23755872  0.66359241     0.87700
O1749       O  0.75527581  0.04452356  0.69147411    -0.74600
O1750       O  0.75017800  0.05394034  0.63934489    -0.74700
O1751       O  0.67978527  0.04944263  0.66618468    -0.74700
O1752       O  0.82604824  0.04887390  0.66466926    -0.74800
O1753       O  0.83237004  0.42422492  0.66613834    -0.74700
O1754       O  0.68588309  0.42518852  0.66613906    -0.74700
O1755       O  0.76034514  0.41186845  0.64026361    -0.74700
O1756       O  0.75885215  0.43698386  0.69187645    -0.74700
Ni1757     Ni  0.75279468  0.05224722  0.66548384     1.25400
Ni1758     Ni  0.75929091  0.42153926  0.66628260     1.25400
C1759       C  0.75674884  0.00037910  0.69908540     0.87500
C1760       C  0.75134334  0.01279706  0.62981779     0.87500
C1761       C  0.65686813  0.00681496  0.66526242     0.87500
C1762       C  0.85106411  0.00606430  0.66386148     0.87700
O1763       O  0.75308473  0.28372707  0.68939576    -0.74600
O1764       O  0.74905051  0.27614102  0.63716731    -0.74700
O1765       O  0.67795098  0.28030331  0.66396108    -0.74700
O1766       O  0.82407690  0.27999950  0.66263051    -0.74800
O1767       O  0.82660554  0.19455744  0.66440928    -0.74700
O1768       O  0.68022662  0.19480556  0.66521175    -0.74700
O1769       O  0.75283306  0.19078339  0.63865674    -0.74700
O1770       O  0.75488450  0.19824256  0.69085544    -0.74700
Ni1771     Ni  0.75092092  0.28309351  0.66322129     1.25400
Ni1772     Ni  0.75360291  0.19152271  0.66482829     1.25400
C1773       C  0.75514006  0.24211316  0.69864184     0.87500
C1774       C  0.75076316  0.23225111  0.62930312     0.87500
C1775       C  0.65512261  0.23763387  0.66478219     0.87500
C1776       C  0.84926219  0.23734096  0.66349053     0.87700
C1777       C  0.71853815  0.16999839  0.86498422    -0.18000
C1778       C  0.71567926  0.17304844  0.84598948    -0.20200
C1779       C  0.74608696  0.20746021  0.83640239     0.20400
C1780       C  0.77993700  0.23900719  0.84600592    -0.03100
C1781       C  0.78248198  0.23625087  0.86520355    -0.06200
C1782       C  0.75163969  0.20149969  0.87470242     0.20700
C1783       C  0.81600087  0.26801961  0.87487393     0.18900
C1784       C  0.84629803  0.30253987  0.86524944    -0.17700
C1785       C  0.84427625  0.30476674  0.84618390    -0.19900
C1786       C  0.81140180  0.27305423  0.83642768     0.20400
C1787       C  0.80947566  0.27453274  0.81728706    -0.32900
C1788       C  0.77507653  0.24384371  0.80774797     0.01100
C1789       C  0.74330441  0.21073864  0.81736942    -0.24200
C1790       C  0.75437846  0.19885189  0.89375716    -0.28800
C1791       C  0.78825790  0.22965744  0.90342567     0.06700
C1792       C  0.81911187  0.26407183  0.89395059    -0.27500
H1793       H  0.69478415  0.14301760  0.87208054     0.11500
H1794       H  0.68977326  0.14837158  0.83879057     0.12600
H1795       H  0.87241352  0.32695813  0.87245486     0.11700
H1796       H  0.86885742  0.33088615  0.83904583     0.10900
H1797       H  0.83388770  0.30019864  0.80982276     0.16300
H1798       H  0.71714776  0.18674917  0.80996381     0.12200
H1799       H  0.73055548  0.17239954  0.90109973     0.15100
H1800       H  0.84485060  0.28826387  0.90146513     0.14800
C1801       C  0.86460933  0.44125088  0.86292407    -0.18000
C1802       C  0.86228598  0.44385503  0.84385753    -0.20200
C1803       C  0.82039175  0.46832002  0.83512636     0.20400
C1804       C  0.78006996  0.48968122  0.84573594    -0.03100
C1805       C  0.78230828  0.48684244  0.86498173    -0.06200
C1806       C  0.82494615  0.46277862  0.87363797     0.20700
C1807       C  0.73617050  0.99787010  0.87640107     0.18900
C1808       C  0.69264759  0.01916560  0.86770918    -0.17700
C1809       C  0.69064618  0.02249499  0.84870699    -0.19900
C1810       C  0.73208458  0.00448979  0.83808593     0.20400
C1811       C  0.73044426  0.00805847  0.81903169    -0.32900
C1812       C  0.77533587  0.49526923  0.80730943     0.01100
C1813       C  0.81808983  0.47182713  0.81600074    -0.24200
C1814       C  0.82702176  0.46061241  0.89281357    -0.28800
C1815       C  0.78627875  0.48090181  0.90340466     0.06700
C1816       C  0.73874066  0.99525458  0.89545107    -0.27500
H1817       H  0.89771365  0.42274360  0.86929505     0.11500
H1818       H  0.89363129  0.42730851  0.83593886     0.12600
H1819       H  0.66022930  0.03350219  0.87561537     0.11700
H1820       H  0.65670505  0.03929864  0.84231802     0.10900
H1821       H  0.69677095  0.02493064  0.81247207     0.16300
H1822       H  0.84910366  0.45541661  0.80786840     0.12200
H1823       H  0.85980335  0.44231031  0.89947682     0.15100
H1824       H  0.70670098  0.00995054  0.90348465     0.14800
C1825       C  0.91841455  0.19628703  0.84613753    -0.18000
C1826       C  0.91749385  0.19746984  0.86520974    -0.20200
C1827       C  0.95246119  0.22703161  0.87489543     0.20400
C1828       C  0.99036345  0.25368234  0.86529629    -0.03100
C1829       C  0.99185051  0.25180376  0.84608688    -0.06200
C1830       C  0.95497766  0.22387463  0.83644772     0.20700
C1831       C  0.49581907  0.29564820  0.83702027     0.18900
C1832       C  0.52657271  0.32933036  0.84677406    -0.17700
C1833       C  0.52254026  0.33286107  0.86572122    -0.19900
C1834       C  0.48788428  0.30258861  0.87522894     0.20400
C1835       C  0.48454136  0.30528130  0.89424913    -0.32900
C1836       C  0.98570542  0.26000072  0.90352351     0.01100
C1837       C  0.95002903  0.23082134  0.89397186    -0.24200
C1838       C  0.95527825  0.22426859  0.81731067    -0.28800
C1839       C  0.99314088  0.25067724  0.80777026     0.06700
C1840       C  0.50014032  0.29162631  0.81804256    -0.27500
H1841       H  0.89002395  0.17446084  0.83895912     0.11500
H1842       H  0.88844563  0.17643812  0.87237936     0.12600
H1843       H  0.55387764  0.35284412  0.83974345     0.11700
H1844       H  0.54687157  0.35896471  0.87296830     0.10900
H1845       H  0.50894988  0.33099291  0.90168199     0.16300
H1846       H  0.92092737  0.21052119  0.90141802     0.12200
H1847       H  0.92661164  0.20347562  0.80983679     0.15100
H1848       H  0.52760616  0.31462379  0.81083638     0.14800
C1849       C  0.54194328  0.96624605  0.84925330    -0.18000
C1850       C  0.53968401  0.96961552  0.86823284    -0.20200
C1851       C  0.49790058  0.99460905  0.87677924     0.20400
C1852       C  0.98587694  0.00808048  0.86578188    -0.03100
C1853       C  0.98627171  0.00612475  0.84655397    -0.06200
C1854       C  0.50252092  0.98791677  0.83851091     0.20700
C1855       C  0.94407141  0.53756145  0.83551820     0.18900
C1856       C  0.90299592  0.56219046  0.84468905    -0.17700
C1857       C  0.90169874  0.56384286  0.86380861    -0.19900
C1858       C  0.94157004  0.54113669  0.87415664     0.20400
C1859       C  0.94015674  0.54138813  0.89338233    -0.32900
C1860       C  0.98558945  0.01256993  0.90412462     0.01100
C1861       C  0.49587718  0.99863030  0.89578958    -0.24200
C1862       C  0.50524419  0.98554792  0.81947656    -0.28800
C1863       C  0.98794474  0.00320279  0.80820609     0.06700
C1864       C  0.94509714  0.53425065  0.81632125    -0.27500
H1865       H  0.57475168  0.94697392  0.84296821     0.11500
H1866       H  0.57077432  0.95285605  0.87623207     0.12600
H1867       H  0.87135996  0.57934885  0.83707825     0.11700
H1868       H  0.86905903  0.58225135  0.87050592     0.10900
H1869       H  0.90775212  0.55930149  0.90039548     0.16300
H1870       H  0.52691014  0.98208968  0.90389077     0.12200
H1871       H  0.53811493  0.96664884  0.81307149     0.15100
H1872       H  0.91381403  0.55105380  0.80841951     0.14800
C1873       C  0.80189379  0.14424414  0.55264345    -0.18000
C1874       C  0.80127948  0.14582351  0.57171925    -0.20200
C1875       C  0.77609061  0.18638995  0.58092125     0.20400
C1876       C  0.75188244  0.22610822  0.57078354    -0.03100
C1877       C  0.75293023  0.22474216  0.55154513    -0.06200
C1878       C  0.77783346  0.18345609  0.54242755     0.20700
C1879       C  0.72928898  0.26485392  0.54145155     0.18900
C1880       C  0.70439856  0.30558422  0.55061081    -0.17700
C1881       C  0.70308426  0.30678321  0.56965313    -0.19900
C1882       C  0.72691839  0.26742966  0.57985348     0.20400
C1883       C  0.72698010  0.26918707  0.59895337    -0.32900
C1884       C  0.75057560  0.22957228  0.60916267     0.01100
C1885       C  0.77461611  0.18797660  0.60005815    -0.24200
C1886       C  0.77825322  0.18221606  0.52327928    -0.28800
C1887       C  0.75558790  0.22264001  0.51318291     0.06700
C1888       C  0.73137317  0.26386786  0.52237661    -0.27500
H1889       H  0.82053626  0.11192501  0.54586601     0.11500
H1890       H  0.81967929  0.11479816  0.57928121     0.12600
H1891       H  0.68659358  0.33693975  0.54303751     0.11700
H1892       H  0.68435487  0.33908524  0.57641322     0.10900
H1893       H  0.70830504  0.30126645  0.60589651     0.16300
H1894       H  0.79307416  0.15741796  0.60786629     0.12200
H1895       H  0.79710437  0.15040374  0.51624039     0.15100
H1896       H  0.71358716  0.29498974  0.51465414     0.14800
C1897       C  0.82044093  0.35070921  0.57510806    -0.18000
C1898       C  0.82511449  0.34568604  0.55610786    -0.20200
C1899       C  0.80322750  0.38280320  0.54437778     0.22000
C1900       C  0.74161256  0.02286454  0.55223963    -0.03100
C1901       C  0.74448927  0.02095394  0.57144564    -0.06200
C1902       C  0.79319404  0.39264130  0.58277522     0.20700
C1903       C  0.71670959  0.05728885  0.58204269     0.18900
C1904       C  0.68653257  0.09531625  0.57332342    -0.17700
C1905       C  0.68405218  0.09746427  0.55426507    -0.19900
C1906       C  0.71123174  0.06131376  0.54359334     0.20400
C1907       C  0.70921144  0.06324752  0.52445291    -0.32900
C1908       C  0.78682959  0.41706351  0.51378566     0.01100
C1909       C  0.80799586  0.37859111  0.52523172    -0.24200
C1910       C  0.78798510  0.39817960  0.60182957    -0.28800
C1911       C  0.74947352  0.01622094  0.60974026     0.06700
C1912       C  0.72003749  0.05517787  0.60114293    -0.27500
H1913       H  0.83757316  0.32139108  0.58380383     0.11500
H1914       H  0.84533919  0.31242323  0.55058008     0.12600
H1915       H  0.66567309  0.12401474  0.58124717     0.11700
H1916       H  0.66166463  0.12798016  0.54785109     0.10900
H1917       H  0.68636125  0.09298305  0.51773186     0.16300
H1918       H  0.82893855  0.34626033  0.51930365     0.12200
H1919       H  0.80541101  0.36976098  0.61083500     0.15100
H1920       H  0.69892332  0.08314710  0.60933349     0.14800
C1921       C  0.05116467  0.14316548  0.57159283    -0.18000
C1922       C  0.05191811  0.14195940  0.55250929    -0.20200
C1923       C  0.02835215  0.18161709  0.54235851     0.20400
C1924       C  0.00370314  0.22289987  0.55155006    -0.03100
C1925       C  0.00250040  0.22388266  0.57078458    -0.06200
C1926       C  0.02634511  0.18380466  0.58086820     0.20700
C1927       C  0.47887112  0.26540746  0.58055312     0.18900
C1928       C  0.45522680  0.30511611  0.57046627    -0.17700
C1929       C  0.45650417  0.30433903  0.55142280    -0.19900
C1930       C  0.48107310  0.26364782  0.54213952     0.20400
C1931       C  0.48314153  0.26313371  0.52304870    -0.32900
C1932       C  0.00675630  0.22170184  0.51318993     0.01100
C1933       C  0.02899758  0.18084246  0.52320283    -0.24200
C1934       C  0.02510238  0.18528497  0.60001752    -0.28800
C1935       C  0.00169142  0.22715710  0.60914156     0.06700
C1936       C  0.47930456  0.26696657  0.59964217    -0.27500
H1937       H  0.06932727  0.11188655  0.57909964     0.11500
H1938       H  0.07039316  0.10964755  0.54567427     0.12600
H1939       H  0.43673924  0.33740216  0.57731560     0.11700
H1940       H  0.43892096  0.33600687  0.54394579     0.10900
H1941       H  0.46566187  0.29463497  0.51543242     0.16300
H1942       H  0.04759706  0.14901102  0.51609858     0.12200
H1943       H  0.04340353  0.15458624  0.60780341     0.15100
H1944       H  0.46105402  0.29921120  0.60662480     0.14800
C1945       C  0.47142716  0.51179164  0.56750825    -0.18000
C1946       C  0.47628049  0.50737879  0.54859551    -0.20200
C1947       C  0.50366015  0.46576625  0.54088143     0.20400
C1948       C  0.02483168  0.42719431  0.55186832    -0.03100
C1949       C  0.01968293  0.43144780  0.57101496    -0.06200
C1950       C  0.49391780  0.47471194  0.57905356     0.20700
C1951       C  0.02725465  0.97853043  0.57982747     0.18900
C1952       C  0.05486653  0.94288855  0.56910078    -0.17700
C1953       C  0.05225856  0.94530428  0.55008034    -0.19900
C1954       C  0.02190094  0.98332495  0.54148441     0.20400
C1955       C  0.01860684  0.98559050  0.52244862    -0.32900
C1956       C  0.98872874  0.02416716  0.51388440     0.01100
C1957       C  0.50950711  0.46186956  0.52193657    -0.24200
C1958       C  0.49045593  0.47990376  0.59804679    -0.28800
C1959       C  0.00175345  0.01213699  0.60953924     0.06700
C1960       C  0.02912377  0.97595632  0.59891761    -0.27500
H1961       H  0.45040334  0.54450802  0.57311770     0.11500
H1962       H  0.45886269  0.53674971  0.53999142     0.12600
H1963       H  0.07762054  0.91252326  0.57543611     0.11700
H1964       H  0.07325796  0.91685956  0.54207725     0.10900
H1965       H  0.03983933  0.95769531  0.51425329     0.16300
H1966       H  0.49258347  0.49142644  0.51327308     0.12200
H1967       H  0.47023391  0.51298401  0.60377352     0.15100
H1968       H  0.05230958  0.94626555  0.60551852     0.14800
C1969       C  0.80440619  0.14975757  0.36379644    -0.18000
C1970       C  0.80283196  0.15117945  0.34473980    -0.20200
C1971       C  0.77533680  0.19048345  0.33567325     0.20400
C1972       C  0.74987839  0.22923851  0.34590085    -0.03100
C1973       C  0.75186181  0.22803963  0.36513016    -0.06200
C1974       C  0.77900962  0.18791003  0.37411440     0.20700
C1975       C  0.72688861  0.26711754  0.37534772     0.18900
C1976       C  0.70014769  0.30690789  0.36628849    -0.17700
C1977       C  0.69808595  0.30803649  0.34723779    -0.19900
C1978       C  0.72280743  0.26943814  0.33692496     0.20400
C1979       C  0.72188539  0.27094416  0.31780511    -0.32900
C1980       C  0.74661990  0.23209766  0.30754752     0.01100
C1981       C  0.77281594  0.19170695  0.31657354    -0.24200
C1982       C  0.78005140  0.18651744  0.39324252    -0.28800
C1983       C  0.75571925  0.22566893  0.40347341     0.06700
C1984       C  0.72958153  0.26603878  0.39443129    -0.27500
H1985       H  0.82464920  0.11825548  0.37048203     0.11500
H1986       H  0.82223420  0.12091363  0.33709015     0.12600
H1987       H  0.68143549  0.33759104  0.37394575     0.11700
H1988       H  0.67804981  0.33966890  0.34055292     0.10900
H1989       H  0.70168682  0.30216320  0.31089479     0.16300
H1990       H  0.79227045  0.16186327  0.30870847     0.12200
H1991       H  0.80046172  0.15546469  0.40017106     0.15100
H1992       H  0.71063373  0.29624013  0.40228051     0.14800
C1993       C  0.81871587  0.34863255  0.36171045    -0.18000
C1994       C  0.81433749  0.35349072  0.34272894    -0.20200
C1995       C  0.79256384  0.39815365  0.33492959     0.20400
C1996       C  0.74707716  0.02297785  0.34683122    -0.03100
C1997       C  0.74546998  0.02490687  0.36605788    -0.06200
C1998       C  0.80173349  0.38847100  0.37327387     0.20700
C1999       C  0.71608574  0.06372581  0.37490414     0.18900
C2000       C  0.68886500  0.10032969  0.36446126    -0.17700
C2001       C  0.69013930  0.09820733  0.34541192    -0.19900
C2002       C  0.71903710  0.05968548  0.33647135     0.20400
C2003       C  0.72044976  0.05728982  0.31736676    -0.32900
C2004       C  0.76670469  0.44880150  0.30821043     0.01100
C2005       C  0.78708862  0.40312343  0.31590523    -0.24200
C2006       C  0.80514732  0.38372926  0.39239290    -0.28800
C2007       C  0.78915150  0.42456321  0.40379019     0.06700
C2008       C  0.71444723  0.06525360  0.39402141    -0.27500
H2009       H  0.83480230  0.31338679  0.36735435     0.11500
H2010       H  0.82738470  0.32195375  0.33415268     0.12600
H2011       H  0.66718483  0.13106264  0.37104617     0.11700
H2012       H  0.66922078  0.12721898  0.33765693     0.10900
H2013       H  0.69903399  0.08551988  0.30938599     0.16300
H2014       H  0.79970012  0.37191650  0.30709009     0.12200
H2015       H  0.82076294  0.34867770  0.39836626     0.15100
H2016       H  0.69203109  0.09511720  0.40085050     0.14800
C2017       C  0.55494673  0.14944562  0.34533313    -0.18000
C2018       C  0.55577486  0.14824672  0.36440851    -0.20200
C2019       C  0.53009280  0.18656875  0.37457029     0.20400
C2020       C  0.00288232  0.22684248  0.36518202    -0.03100
C2021       C  0.50198386  0.22749779  0.34616106    -0.06200
C2022       C  0.52803111  0.18877333  0.33606933     0.20700
C2023       C  0.97489893  0.26796144  0.33683366     0.18900
C2024       C  0.94909048  0.30624051  0.34697871    -0.17700
C2025       C  0.95032783  0.30525068  0.36603203    -0.19900
C2026       C  0.97724104  0.26585129  0.37524595     0.20400
C2027       C  0.97935428  0.26504170  0.39433809    -0.32900
C2028       C  0.00548591  0.22494097  0.40351595     0.01100
C2029       C  0.53060112  0.18553762  0.39371147    -0.24200
C2030       C  0.52656345  0.19001572  0.31691839    -0.28800
C2031       C  0.00059078  0.23087409  0.30760999     0.06700
C2032       C  0.97505211  0.26950120  0.31773923    -0.27500
H2033       H  0.57450396  0.11903204  0.33781787     0.11500
H2034       H  0.57575422  0.11679784  0.37123344     0.12600
H2035       H  0.92872604  0.33749328  0.34016555     0.11700
H2036       H  0.93084638  0.33568888  0.37356522     0.10900
H2037       H  0.96003540  0.29521872  0.40207814     0.16300
H2038       H  0.55095093  0.15466350  0.40076998     0.12200
H2039       H  0.54641535  0.16025781  0.30914162     0.15100
H2040       H  0.95490270  0.30059962  0.31073010     0.14800
C2041       C  0.57087609  0.34556430  0.36169152    -0.18000
C2042       C  0.56704085  0.35059614  0.34267538    -0.20200
C2043       C  0.54368853  0.39445730  0.33483972     0.20400
C2044       C  0.02389852  0.43263947  0.34624357    -0.03100
C2045       C  0.02800521  0.42788816  0.36540146    -0.06200
C2046       C  0.55183286  0.38446187  0.37328901     0.20700
C2047       C  0.96491554  0.06459311  0.37486591     0.18900
C2048       C  0.93794824  0.10092762  0.36422091    -0.17700
C2049       C  0.94000567  0.09849663  0.34517379    -0.19900
C2050       C  0.96953550  0.05999430  0.33644738     0.20400
C2051       C  0.97193892  0.05729217  0.31736219    -0.32900
C2052       C  0.01749795  0.44376908  0.30801109     0.01100
C2053       C  0.53978853  0.40013811  0.31574452    -0.24200
C2054       C  0.55594605  0.38018113  0.39244481    -0.28800
C2055       C  0.03758397  0.41994401  0.40365750     0.06700
C2056       C  0.96259725  0.06634460  0.39398890    -0.27500
H2057       H  0.58837929  0.31098012  0.36733343     0.11500
H2058       H  0.58198205  0.31989141  0.33409130     0.12600
H2059       H  0.91586261  0.13164198  0.37064328     0.11700
H2060       H  0.91914557  0.12722366  0.33725867     0.10900
H2061       H  0.95070641  0.08528727  0.30921526     0.16300
H2062       H  0.55501105  0.37020803  0.30687144     0.12200
H2063       H  0.57398202  0.34629677  0.39844163     0.15100
H2064       H  0.93984063  0.09615164  0.40070585     0.14800
C2065       C  0.87404873  0.18799700  0.05306331    -0.18000
C2066       C  0.87237215  0.19011869  0.07216052    -0.20200
C2067       C  0.82997393  0.21286911  0.08114574     0.20400
C2068       C  0.78828679  0.23236790  0.07073709    -0.03100
C2069       C  0.78971201  0.22966368  0.05151483    -0.06200
C2070       C  0.83303177  0.20787705  0.04259334     0.20700
C2071       C  0.74774917  0.24899942  0.04123943     0.18900
C2072       C  0.70481370  0.27062927  0.05015273    -0.17700
C2073       C  0.70349622  0.27349956  0.06914132    -0.19900
C2074       C  0.74503545  0.25465315  0.07951741     0.20400
C2075       C  0.74375457  0.25754244  0.09854011    -0.32900
C2076       C  0.78515572  0.23880721  0.10907886     0.01100
C2077       C  0.82841762  0.21669307  0.10029925    -0.24200
C2078       C  0.83447608  0.20664597  0.02340196    -0.28800
C2079       C  0.79249316  0.22578840  0.01312983     0.06700
C2080       C  0.74929593  0.24654242  0.02220857    -0.27500
H2081       H  0.90772773  0.17132450  0.04647413     0.11500
H2082       H  0.90472494  0.17486409  0.07989385     0.12600
H2083       H  0.67224547  0.28545709  0.04242878     0.11700
H2084       H  0.66992086  0.29045383  0.07571828     0.10900
H2085       H  0.71031189  0.27463346  0.10517882     0.16300
H2086       H  0.86029028  0.20169747  0.10835017     0.12200
H2087       H  0.86785365  0.19035082  0.01649297     0.15100
H2088       H  0.71694544  0.26163628  0.01441655     0.14800
C2089       C  0.86428908  0.44096680  0.05398088    -0.18000
C2090       C  0.86196709  0.44340003  0.07304691    -0.20200
C2091       C  0.81850986  0.46465637  0.08182268     0.20400
C2092       C  0.78652767  0.98231819  0.07173006    -0.03100
C2093       C  0.78797125  0.98027841  0.05249460    -0.06200
C2094       C  0.82294840  0.45911605  0.04332174     0.20700
C2095       C  0.74675129  0.00147576  0.04228281     0.18900
C2096       C  0.70456376  0.02435120  0.05126743    -0.17700
C2097       C  0.70326392  0.02660825  0.07026251    -0.19900
C2098       C  0.74403009  0.00585232  0.08057513     0.20400
C2099       C  0.74271228  0.00815484  0.09959784    -0.32900
C2100       C  0.77265655  0.48998686  0.10966789     0.01100
C2101       C  0.81676884  0.46951473  0.10091143    -0.24200
C2102       C  0.82548605  0.45826446  0.02414054    -0.28800
C2103       C  0.78333559  0.47553554  0.01358376     0.06700
C2104       C  0.74825429  0.99956541  0.02324162    -0.27500
H2105       H  0.89886491  0.42573309  0.04756015     0.11500
H2106       H  0.89472634  0.42974842  0.08092067     0.12600
H2107       H  0.67257568  0.04062930  0.04359479     0.11700
H2108       H  0.67028532  0.04457561  0.07689603     0.10900
H2109       H  0.70988410  0.02632824  0.10627603     0.16300
H2110       H  0.84952778  0.45671227  0.10896883     0.12200
H2111       H  0.85997983  0.44374000  0.01744834     0.15100
H2112       H  0.71641008  0.01594014  0.01550124     0.14800
C2113       C  0.54606517  0.22893639  0.04945272    -0.18000
C2114       C  0.54893418  0.22560126  0.06843083    -0.20200
C2115       C  0.50901272  0.24573089  0.07930988     0.20400
C2116       C  0.98776175  0.26274302  0.07064803    -0.03100
C2117       C  0.46292440  0.27308446  0.05182595    -0.06200
C2118       C  0.50319523  0.25238361  0.04104540     0.20700
C2119       C  0.94508423  0.28942761  0.04237134     0.18900
C2120       C  0.90548249  0.31267406  0.05265272    -0.17700
C2121       C  0.90683303  0.31119605  0.07172851    -0.19900
C2122       C  0.94748784  0.28583334  0.08084957     0.20400
C2123       C  0.94809477  0.28214711  0.09995018    -0.32900
C2124       C  0.47132852  0.26157265  0.10927286     0.01100
C2125       C  0.51156078  0.24208911  0.09833873    -0.24200
C2126       C  0.49990054  0.25520169  0.02203008    -0.28800
C2127       C  0.98379555  0.26685503  0.01307982     0.06700
C2128       C  0.94357333  0.28977194  0.02322220    -0.27500
H2129       H  0.57734337  0.21298598  0.04133999     0.11500
H2130       H  0.58237129  0.20716790  0.07460179     0.12600
H2131       H  0.87298922  0.33119684  0.04592605     0.11700
H2132       H  0.87539412  0.32873864  0.07934563     0.10900
H2133       H  0.91700552  0.29951926  0.10781297     0.16300
H2134       H  0.54475917  0.22356070  0.10465442     0.12200
H2135       H  0.53088742  0.23903326  0.01381433     0.15100
H2136       H  0.91149627  0.30829979  0.01622074     0.14800
C2137       C  0.90486305  0.55912710  0.07247602    -0.18000
C2138       C  0.90352675  0.55981769  0.05337791    -0.20200
C2139       C  0.94251541  0.53521904  0.04317315     0.20400
C2140       C  0.98671022  0.01360972  0.05229461    -0.03100
C2141       C  0.98667352  0.01149925  0.07152604    -0.06200
C2142       C  0.94498552  0.53340598  0.08175701     0.20700
C2143       C  0.50771710  0.99684797  0.08046952     0.18900
C2144       C  0.54927621  0.97913779  0.06985015    -0.17700
C2145       C  0.54739092  0.98277267  0.05086066    -0.19900
C2146       C  0.50386941  0.00407370  0.04218143     0.20400
C2147       C  0.50143530  0.00693465  0.02313721    -0.32900
C2148       C  0.98590437  0.01574833  0.01390466     0.01100
C2149       C  0.94120425  0.53536055  0.02399142    -0.24200
C2150       C  0.94591826  0.53135776  0.10094203    -0.28800
C2151       C  0.98564658  0.00503733  0.10984840     0.06700
C2152       C  0.50922948  0.99278778  0.09949210    -0.27500
H2153       H  0.87383666  0.57769248  0.08000030     0.11500
H2154       H  0.87144794  0.57881078  0.04656767     0.12600
H2155       H  0.58322969  0.96234026  0.07623183     0.11700
H2156       H  0.57991223  0.96867112  0.04295205     0.10900
H2157       H  0.53357865  0.99241569  0.01511095     0.16300
H2158       H  0.90979642  0.55493091  0.01695683     0.12200
H2159       H  0.91548761  0.55016261  0.10872083     0.15100
H2160       H  0.54292086  0.97573168  0.10598239     0.14800
O2161       O  0.52944244  0.00317673  0.18959310    -0.74600
O2162       O  0.51995313  0.50716345  0.13777049    -0.74700
O2163       O  0.52742944  0.57746273  0.16481444    -0.74700
O2164       O  0.52116915  0.93058010  0.16361786    -0.74800
O2165       O  0.94530419  0.92999532  0.16502801    -0.74700
O2166       O  0.95098050  0.57447617  0.16749629    -0.74700
O2167       O  0.94416771  0.00419416  0.13900717    -0.74700
O2168       O  0.95785495  0.49665796  0.19230069    -0.74700
Ni2169     Ni  0.53152117  0.50385719  0.16356421     1.25400
Ni2170     Ni  0.94918806  0.50156724  0.16620017     1.25400
C2171       C  0.48909311  0.00446103  0.19950452     0.87500
C2172       C  0.98889230  0.50487173  0.13035714     0.87500
C2173       C  0.48448655  0.60198151  0.16684592     0.87500
C2174       C  0.47819631  0.90828848  0.16479598     0.87700
O2175       O  0.52834621  0.75858592  0.19072958    -0.74600
O2176       O  0.51655754  0.75284272  0.13849574    -0.74700
O2177       O  0.52108815  0.82795761  0.16369362    -0.74700
O2178       O  0.52495811  0.68203032  0.16553690    -0.74800
O2179       O  0.94829066  0.67864020  0.16674017    -0.74700
O2180       O  0.94501958  0.82544373  0.16538254    -0.74700
O2181       O  0.94395601  0.75095134  0.13988418    -0.74700
O2182       O  0.94821433  0.75497759  0.19216931    -0.74700
Ni2183     Ni  0.52574597  0.75512356  0.16452296     1.25400
Ni2184     Ni  0.94328659  0.75222499  0.16607849     1.25400
C2185       C  0.48733488  0.76099730  0.20035648     0.87500
C2186       C  0.47202463  0.75460455  0.13101075     0.87500
C2187       C  0.47814073  0.85249682  0.16489163     0.87500
C2188       C  0.48294707  0.65814924  0.16676169     0.87700
O2189       O  0.80428548  0.99322286  0.19231372    -0.74600
O2190       O  0.81226457  0.49331556  0.13907838    -0.74700
O2191       O  0.80735969  0.56573486  0.16594980    -0.74700
O2192       O  0.80979298  0.91768451  0.16676647    -0.74800
O2193       O  0.72458894  0.92214362  0.16367557    -0.74700
O2194       O  0.72179651  0.56613893  0.16517016    -0.74700
O2195       O  0.73451706  0.99319633  0.13742359    -0.74700
O2196       O  0.72179234  0.48979253  0.19037567    -0.74700
Ni2197     Ni  0.81504099  0.99049269  0.16636393     1.25400
Ni2198     Ni  0.72372695  0.99517513  0.16321369     1.25400
C2199       C  0.75927089  0.99659089  0.19931709     0.87500
C2200       C  0.77926078  0.98958491  0.13021310     0.87500
C2201       C  0.76395591  0.58999846  0.16597913     0.87500
C2202       C  0.76657507  0.89603498  0.16505870     0.87700
O2203       O  0.71403289  0.74946225  0.19048600    -0.74600
O2204       O  0.72665044  0.74205981  0.13848948    -0.74700
O2205       O  0.72025383  0.67146992  0.16540493    -0.74700
O2206       O  0.72207076  0.81823865  0.16359347    -0.74800
O2207       O  0.80750958  0.81460224  0.16576236    -0.74700
O2208       O  0.80552198  0.66901264  0.16810560    -0.74700
O2209       O  0.81189119  0.73765232  0.14067116    -0.74700
O2210       O  0.79932264  0.74716416  0.19312014    -0.74700
Ni2211     Ni  0.71772537  0.74518460  0.16440552     1.25400
Ni2212     Ni  0.80910826  0.74180583  0.16702328     1.25400
C2213       C  0.75446760  0.75215378  0.20026403     0.87500
C2214       C  0.77090718  0.73880604  0.13092402     0.87500
C2215       C  0.76297952  0.64616369  0.16664969     0.87500
C2216       C  0.76524249  0.84031766  0.16473207     0.87700
O2217       O  0.49697257  0.96401537  0.22849894    -0.74600
O2218       O  0.00298978  0.96991308  0.28093354    -0.74700
O2219       O  0.92762908  0.96522293  0.25558536    -0.74700
O2220       O  0.57322801  0.96631743  0.25379693    -0.74800
O2221       O  0.58422076  0.51252246  0.25553824    -0.74700
O2222       O  0.93795908  0.50995712  0.25663105    -0.74700
O2223       O  0.51322713  0.49960668  0.28194589    -0.74700
O2224       O  0.00816986  0.52304442  0.23030751    -0.74700
Ni2225     Ni  0.00076672  0.96250112  0.25484581     1.25400
Ni2226     Ni  0.01082755  0.51342858  0.25626854     1.25400
C2227       C  0.99592689  0.00329950  0.21931352     0.87500
C2228       C  0.00085489  0.01404634  0.28863673     0.87500
C2229       C  0.90231034  0.00778336  0.25467318     0.87500
C2230       C  0.59632588  0.00884398  0.25313707     0.87700
O2231       O  0.49198553  0.73140662  0.23099049    -0.74600
O2232       O  0.99548862  0.75694911  0.28245358    -0.74700
O2233       O  0.92126360  0.74321328  0.25736390    -0.74700
O2234       O  0.56693400  0.74315969  0.25607254    -0.74800
O2235       O  0.56511060  0.82772652  0.25146729    -0.74700
O2236       O  0.91846352  0.82727686  0.25167062    -0.74700
O2237       O  0.49181976  0.84098124  0.27774155    -0.74700
O2238       O  0.99150705  0.81377331  0.22570400    -0.74700
Ni2239     Ni  0.99449205  0.74033450  0.25699790     1.25400
Ni2240     Ni  0.99141724  0.83054603  0.25126325     1.25400
C2241       C  0.99236380  0.76734683  0.21996898     0.87500
C2242       C  0.99317062  0.80315523  0.28840069     0.87500
C2243       C  0.89594004  0.78518051  0.25467232     0.87500
C2244       C  0.59000785  0.78514814  0.25349274     0.87700
O2245       O  0.75280670  0.95957237  0.22871022    -0.74600
O2246       O  0.74970720  0.96989660  0.28084089    -0.74700
O2247       O  0.67730520  0.96542155  0.25429870    -0.74700
O2248       O  0.82382567  0.96473276  0.25529912    -0.74800
O2249       O  0.83463779  0.51038820  0.25591000    -0.74700
O2250       O  0.68838610  0.51195097  0.25527363    -0.74700
O2251       O  0.76122293  0.50111595  0.28149976    -0.74700
O2252       O  0.76212875  0.52096690  0.22962035    -0.74700
Ni2253     Ni  0.75079481  0.96183456  0.25485763     1.25400
Ni2254     Ni  0.76148583  0.51412832  0.25572536     1.25400
C2255       C  0.75389393  0.00052954  0.21914504     0.87500
C2256       C  0.74783532  0.01412776  0.28841519     0.87500
C2257       C  0.65236292  0.00825496  0.25304421     0.87500
C2258       C  0.84655399  0.00751464  0.25458651     0.87700
O2259       O  0.74597279  0.81044240  0.22515580    -0.74600
O2260       O  0.73845310  0.84144486  0.27667634    -0.74700
O2261       O  0.81499554  0.82687371  0.25181256    -0.74700
O2262       O  0.66898351  0.82624061  0.24995269    -0.74800
O2263       O  0.67098360  0.74247769  0.25613464    -0.74700
O2264       O  0.81741471  0.74284794  0.25757598    -0.74700
O2265       O  0.74185885  0.75754107  0.28234192    -0.74700
O2266       O  0.74764478  0.72669206  0.23129818    -0.74700
Ni2267     Ni  0.74194725  0.82927899  0.25064250     1.25400
Ni2268     Ni  0.74439168  0.73946391  0.25706109     1.25400
C2269       C  0.74909821  0.76354298  0.21984430     0.87500
C2270       C  0.73955883  0.80397655  0.28802863     0.87500
C2271       C  0.84012793  0.78497061  0.25477846     0.87500
C2272       C  0.64598603  0.78451954  0.25308708     0.87700
O2273       O  0.48602531  0.98566819  0.43324443    -0.74600
O2274       O  0.98719945  0.98376366  0.48496475    -0.74700
O2275       O  0.91280420  0.98511147  0.45920234    -0.74700
O2276       O  0.55909454  0.98462723  0.45903249    -0.74800
O2277       O  0.61577442  0.46058805  0.45908295    -0.74700
O2278       O  0.96959247  0.46060453  0.45861037    -0.74700
O2279       O  0.54153285  0.46055402  0.48502313    -0.74700
O2280       O  0.04231322  0.46042724  0.43262793    -0.74700
Ni2281     Ni  0.98615368  0.98195437  0.45894430     1.25400
Ni2282     Ni  0.04253278  0.46351591  0.45867073     1.25400
C2283       C  0.98508640  0.02895474  0.42450814     0.87500
C2284       C  0.04184522  0.41826789  0.49351947     0.87500
C2285       C  0.88752364  0.02781526  0.45947846     0.87500
C2286       C  0.58168326  0.02745368  0.45912698     0.87700
O2287       O  0.54113526  0.87410375  0.45952259    -0.74600
O2288       O  0.89481414  0.87528654  0.45942557    -0.74700
O2289       O  0.46852284  0.87336725  0.48604575    -0.74700
O2290       O  0.96746480  0.87579434  0.43294231    -0.74800
O2291       O  0.47056995  0.78917966  0.43342113    -0.74700
O2292       O  0.97181886  0.78923487  0.48513658    -0.74700
O2293       O  0.89746545  0.78977461  0.45926358    -0.74700
O2294       O  0.54373685  0.78857984  0.45926094    -0.74700
Ni2295     Ni  0.96778762  0.87837684  0.45928700     1.25400
Ni2296     Ni  0.97075438  0.78682032  0.45906201     1.25400
C2297       C  0.56637616  0.83140879  0.45930926     0.87500
C2298       C  0.87218752  0.83247317  0.45934712     0.87500
C2299       C  0.97133250  0.83151250  0.49401173     0.87500
C2300       C  0.96988055  0.83301051  0.42433501     0.87700
O2301       O  0.79233771  0.45883932  0.48517114    -0.74600
O2302       O  0.79222035  0.46279764  0.43318169    -0.74700
O2303       O  0.71962030  0.46076541  0.45922239    -0.74700
O2304       O  0.86590662  0.46060067  0.45913136    -0.74800
O2305       O  0.80907744  0.98494287  0.45944126    -0.74700
O2306       O  0.66285810  0.98493260  0.45878971    -0.74700
O2307       O  0.73771984  0.98509995  0.43304020    -0.74700
O2308       O  0.73546431  0.98476148  0.48515327    -0.74700
Ni2309     Ni  0.79263281  0.46370280  0.45920823     1.25400
Ni2310     Ni  0.73618456  0.98189808  0.45909959     1.25400
C2311       C  0.73389643  0.02725581  0.49387387     0.87500
C2312       C  0.73702976  0.02778924  0.42444818     0.87500
C2313       C  0.63752785  0.02760235  0.45889645     0.87500
C2314       C  0.83166535  0.02775366  0.45953357     0.87700
O2315       O  0.71756979  0.87377647  0.48569456    -0.74600
O2316       O  0.71781410  0.87560872  0.43297844    -0.74700
O2317       O  0.64471238  0.87449024  0.45931065    -0.74700
O2318       O  0.79095841  0.87496838  0.45940993    -0.74800
O2319       O  0.79377726  0.78945826  0.45907193    -0.74700
O2320       O  0.64756779  0.78897932  0.45893930    -0.74700
O2321       O  0.72134556  0.79024291  0.43288500    -0.74700
O2322       O  0.72100145  0.78841425  0.48508057    -0.74700
Ni2323     Ni  0.71762682  0.87782663  0.45935643     1.25400
Ni2324     Ni  0.72084800  0.78629227  0.45897395     1.25400
C2325       C  0.72006702  0.83057440  0.49404501     0.87500
C2326       C  0.72044416  0.83298660  0.42426708     0.87500
C2327       C  0.62220398  0.83161270  0.45916247     0.87500
C2328       C  0.81632253  0.83231859  0.45928834     0.87700
O2329       O  0.93769949  0.51573605  0.98498359    -0.74600
O2330       O  0.94276642  0.01711642  0.93284992    -0.74700
O2331       O  0.94238843  0.94406953  0.95900562    -0.74700
O2332       O  0.93803298  0.59062426  0.95943733    -0.74800
O2333       O  0.49689190  0.59947137  0.95932324    -0.74700
O2334       O  0.49779845  0.95419590  0.95942190    -0.74700
O2335       O  0.49488319  0.52713225  0.93277684    -0.74700
O2336       O  0.49800905  0.02771360  0.98526568    -0.74700
Ni2337     Ni  0.93452324  0.51763437  0.95872977     1.25400
Ni2338     Ni  0.49846788  0.52623493  0.95890774     1.25400
C2339       C  0.98050782  0.51311901  0.99359955     0.87500
C2340       C  0.98012884  0.51877652  0.92384425     0.87500
C2341       C  0.98503457  0.91863750  0.95903316     0.87500
C2342       C  0.98110014  0.61298838  0.95960907     0.87700
O2343       O  0.94303951  0.76458690  0.93263617    -0.74600
O2344       O  0.93854514  0.76968820  0.98519767    -0.74700
O2345       O  0.94154641  0.84042460  0.95822198    -0.74700
O2346       O  0.93937236  0.69444157  0.95964127    -0.74800
O2347       O  0.49817066  0.70373052  0.95961475    -0.74700
O2348       O  0.49831609  0.85018504  0.95986930    -0.74700
O2349       O  0.49733335  0.77647477  0.98582159    -0.74700
O2350       O  0.49974107  0.77725669  0.93361352    -0.74700
Ni2351     Ni  0.93753757  0.76751458  0.95887948     1.25400
Ni2352     Ni  0.50140125  0.77689603  0.95975172     1.25400
C2353       C  0.98660298  0.76316879  0.92444808     0.87500
C2354       C  0.98080578  0.76670837  0.99415757     0.87500
C2355       C  0.98455761  0.86276750  0.95896452     0.87500
C2356       C  0.98184326  0.66879914  0.95972492     0.87700
O2357       O  0.82977782  0.47566644  0.93229565    -0.74600
O2358       O  0.83280663  0.97325448  0.98498262    -0.74700
O2359       O  0.82830009  0.89987429  0.95909941    -0.74700
O2360       O  0.82758862  0.54820251  0.95879321    -0.74800
O2361       O  0.74197943  0.54910137  0.95862156    -0.74700
O2362       O  0.74270532  0.90464426  0.95979673    -0.74700
O2363       O  0.74291576  0.47525048  0.98441663    -0.74700
O2364       O  0.74321349  0.97708647  0.93346448    -0.74700
Ni2365     Ni  0.83385092  0.97251253  0.95871300     1.25400
Ni2366     Ni  0.74223327  0.97784438  0.95953000     1.25400
C2367       C  0.78514044  0.97433773  0.92437423     0.87500
C2368       C  0.79051999  0.97619312  0.99389651     0.87500
C2369       C  0.78480753  0.87837278  0.95951200     0.87500
C2370       C  0.78436601  0.57264089  0.95871940     0.87700
O2371       O  0.74008832  0.72719316  0.98520471    -0.74600
O2372       O  0.74069049  0.72679028  0.93287353    -0.74700
O2373       O  0.74067978  0.65352714  0.95907201    -0.74700
O2374       O  0.74067952  0.80013029  0.95904703    -0.74800
O2375       O  0.82629664  0.79731197  0.95988985    -0.74700
O2376       O  0.82628705  0.65161424  0.95848262    -0.74700
O2377       O  0.82619057  0.72733419  0.93286040    -0.74700
O2378       O  0.82553608  0.72246360  0.98549698    -0.74700
Ni2379     Ni  0.73747422  0.72692767  0.95904183     1.25400
Ni2380     Ni  0.82912363  0.72449734  0.95918394     1.25400
C2381       C  0.78252878  0.72498236  0.99403254     0.87500
C2382       C  0.78334771  0.72803204  0.92422133     0.87500
C2383       C  0.78364447  0.62858702  0.95874929     0.87500
C2384       C  0.78369693  0.82263104  0.95952785     0.87700
O2385       O  0.95613804  0.00195689  0.72658058    -0.74600
O2386       O  0.94799446  0.50750023  0.77757164    -0.74700
O2387       O  0.95270243  0.57574321  0.74997123    -0.74700
O2388       O  0.95145666  0.93015781  0.75324471    -0.74800
O2389       O  0.52478490  0.93022722  0.75576286    -0.74700
O2390       O  0.52798916  0.57608579  0.75341084    -0.74700
O2391       O  0.51648796  0.00350678  0.78158922    -0.74700
O2392       O  0.53632586  0.49859538  0.72832129    -0.74700
Ni2393     Ni  0.94963262  0.50269962  0.75130957     1.25400
Ni2394     Ni  0.53047907  0.50264329  0.75446346     1.25400
C2395       C  0.00177122  0.49364921  0.71762623     0.87500
C2396       C  0.98934788  0.50710713  0.78706070     0.87500
C2397       C  0.99537614  0.59870789  0.75094660     0.87500
C2398       C  0.99406727  0.90473404  0.75395669     0.87700
O2399       O  0.95219792  0.75757539  0.72671161    -0.74600
O2400       O  0.95161902  0.74864987  0.77913289    -0.74700
O2401       O  0.95124590  0.82592348  0.75421603    -0.74700
O2402       O  0.95220243  0.67971694  0.75138848    -0.74800
O2403       O  0.52746128  0.68077917  0.75367136    -0.74700
O2404       O  0.52533132  0.82711196  0.75515503    -0.74700
O2405       O  0.52154215  0.75278006  0.78059976    -0.74700
O2406       O  0.53137842  0.75674439  0.72834463    -0.74700
Ni2407     Ni  0.94872769  0.75288848  0.75287865     1.25400
Ni2408     Ni  0.52945146  0.75408304  0.75453294     1.25400
C2409       C  0.99519712  0.75856824  0.71826637     0.87500
C2410       C  0.99436815  0.74835122  0.78782180     0.87500
C2411       C  0.99397345  0.84891910  0.75412665     0.87500
C2412       C  0.99514539  0.65477565  0.75133788     0.87700
O2413       O  0.71777973  0.99777112  0.72824564    -0.74600
O2414       O  0.72791296  0.49900380  0.77931616    -0.74700
O2415       O  0.72316715  0.56988957  0.75228806    -0.74700
O2416       O  0.72093854  0.92420045  0.75442426    -0.74800
O2417       O  0.80645840  0.92137766  0.75256780    -0.74700
O2418       O  0.80871493  0.56783841  0.75099757    -0.74700
O2419       O  0.81101071  0.99265330  0.77891288    -0.74700
O2420       O  0.80495763  0.49269744  0.72535599    -0.74700
Ni2421     Ni  0.72043646  0.49687606  0.75319143     1.25400
Ni2422     Ni  0.81201191  0.49433367  0.75139089     1.25400
C2423       C  0.76099836  0.49120559  0.71763698     0.87500
C2424       C  0.76952145  0.99372076  0.78828643     0.87500
C2425       C  0.76580168  0.59290795  0.75149584     0.87500
C2426       C  0.76357556  0.89889697  0.75366840     0.87700
O2427       O  0.71540500  0.75204506  0.72794883    -0.74600
O2428       O  0.72723541  0.74247767  0.78000907    -0.74700
O2429       O  0.72107364  0.82002278  0.75527617    -0.74700
O2430       O  0.72223465  0.67371988  0.75255471    -0.74800
O2431       O  0.80771216  0.67240934  0.75079748    -0.74700
O2432       O  0.80639888  0.81846314  0.75252471    -0.74700
O2433       O  0.81253470  0.74334304  0.77792035    -0.74700
O2434       O  0.80077342  0.74937110  0.72554168    -0.74700
Ni2435     Ni  0.71845880  0.74695836  0.75404635     1.25400
Ni2436     Ni  0.80992111  0.74562430  0.75161038     1.25400
C2437       C  0.75613516  0.75393030  0.71826695     0.87500
C2438       C  0.77154995  0.74204741  0.78758670     0.87500
C2439       C  0.76358529  0.84314694  0.75390968     0.87500
C2440       C  0.76525113  0.64901852  0.75150857     0.87700
O2441       O  0.00551923  0.52226378  0.68683775    -0.74600
O2442       O  0.00727166  0.49631115  0.63530354    -0.74700
O2443       O  0.93361594  0.50877473  0.66093238    -0.74700
O2444       O  0.58001366  0.51072370  0.66196366    -0.74800
O2445       O  0.57809278  0.96423158  0.66517501    -0.74700
O2446       O  0.93213330  0.96321992  0.66328102    -0.74700
O2447       O  0.00645036  0.96604398  0.63756228    -0.74700
O2448       O  0.00420300  0.96057412  0.68983592    -0.74700
Ni2449     Ni  0.00657073  0.51212763  0.66085482     1.25400
Ni2450     Ni  0.00545017  0.96021625  0.66364159     1.25400
C2451       C  0.00525652  0.48430391  0.69788186     0.87500
C2452       C  0.00992326  0.45023044  0.62925009     0.87500
C2453       C  0.91102417  0.46641058  0.66333265     0.87500
C2454       C  0.60503203  0.46846780  0.66460156     0.87700
O2455       O  0.99712519  0.72857150  0.68763356    -0.74600
O2456       O  0.99888918  0.75295292  0.63599688    -0.74700
O2457       O  0.57070683  0.73979247  0.66314906    -0.74700
O2458       O  0.92490806  0.74058221  0.66133769    -0.74800
O2459       O  0.92210202  0.82493903  0.66645476    -0.74700
O2460       O  0.56872773  0.82453120  0.66733815    -0.74700
O2461       O  0.99460917  0.83734122  0.64071619    -0.74700
O2462       O  0.99507007  0.81304491  0.69243377    -0.74700
Ni2463     Ni  0.99810602  0.73772930  0.66160875     1.25400
Ni2464     Ni  0.99505178  0.82821641  0.66676936     1.25400
C2465       C  0.99574852  0.76697922  0.69849492     0.87500
C2466       C  0.99645875  0.79893390  0.62982147     0.87500
C2467       C  0.59370478  0.78198961  0.66534243     0.87500
C2468       C  0.89958773  0.78267402  0.66376558     0.87700
O2469       O  0.75784431  0.52142144  0.68699840    -0.74600
O2470       O  0.75669282  0.49616741  0.63534570    -0.74700
O2471       O  0.68405130  0.50975258  0.66152327    -0.74700
O2472       O  0.83020106  0.50849051  0.66082879    -0.74800
O2473       O  0.82818548  0.96339822  0.66316229    -0.74700
O2474       O  0.68187245  0.96408921  0.66399561    -0.74700
O2475       O  0.75401289  0.96861706  0.63745413    -0.74700
O2476       O  0.75653221  0.95909879  0.68966187    -0.74700
Ni2477     Ni  0.75707498  0.51195254  0.66096754     1.25400
Ni2478     Ni  0.75516190  0.96073074  0.66348598     1.25400
C2479       C  0.75869367  0.48305132  0.69788959     0.87500
C2480       C  0.75936112  0.45004104  0.62927109     0.87500
C2481       C  0.66098665  0.46777392  0.66409496     0.87500
C2482       C  0.85521228  0.46630929  0.66341530     0.87700
O2483       O  0.74892526  0.81016512  0.69286542    -0.74600
O2484       O  0.74236072  0.83712937  0.64117875    -0.74700
O2485       O  0.67255901  0.82373591  0.66794354    -0.74700
O2486       O  0.81857743  0.82448450  0.66622842    -0.74800
O2487       O  0.82115516  0.74008116  0.66121192    -0.74700
O2488       O  0.67474458  0.73958711  0.66245525    -0.74700
O2489       O  0.74607101  0.75290673  0.63613365    -0.74700
O2490       O  0.75075966  0.72596842  0.68750689    -0.74700
Ni2491     Ni  0.74548678  0.82690941  0.66726178     1.25400
Ni2492     Ni  0.74814322  0.73666776  0.66161834     1.25400
C2493       C  0.75158685  0.76371485  0.69860757     0.87500
C2494       C  0.74357387  0.79901896  0.63011466     0.87500
C2495       C  0.64966970  0.78168461  0.66531894     0.87500
C2496       C  0.84378661  0.78241113  0.66366104     0.87700
C2497       C  0.70944992  0.67497905  0.86538172    -0.18000
C2498       C  0.70790325  0.67687370  0.84632801    -0.20200
C2499       C  0.74163478  0.70783854  0.83664741     0.20400
C2500       C  0.77712796  0.73749454  0.84626687    -0.03100
C2501       C  0.77849787  0.73578973  0.86555438    -0.06200
C2502       C  0.74465768  0.70412029  0.87511917     0.20700
C2503       C  0.81370560  0.76563299  0.87524734     0.18900
C2504       C  0.84619090  0.79799019  0.86554681    -0.17700
C2505       C  0.84515381  0.79933021  0.84642821    -0.19900
C2506       C  0.81121891  0.76876313  0.83662729     0.20400
C2507       C  0.81054703  0.76894848  0.81740487    -0.32900
C2508       C  0.77477556  0.73986174  0.80776911     0.01100
C2509       C  0.74026087  0.70977446  0.81752396    -0.24200
C2510       C  0.74653163  0.70211984  0.89424575    -0.28800
C2511       C  0.78253585  0.73041882  0.90400469     0.06700
C2512       C  0.81607293  0.76213418  0.89441215    -0.27500
H2513       H  0.68307335  0.65064639  0.87251246     0.11500
H2514       H  0.68034787  0.65400334  0.83915038     0.12600
H2515       H  0.87332279  0.82133436  0.87273844     0.11700
H2516       H  0.87144908  0.82375479  0.83929607     0.10900
H2517       H  0.83684530  0.79269384  0.80995378     0.16300
H2518       H  0.71266209  0.68732303  0.81016919     0.12200
H2519       H  0.72042279  0.67788660  0.90157225     0.15100
H2520       H  0.84332840  0.78469431  0.90189232     0.14800
C2521       C  0.86254956  0.93816354  0.86383630    -0.18000
C2522       C  0.86035891  0.94110049  0.84479439    -0.20200
C2523       C  0.81755947  0.96392246  0.83609708     0.20400
C2524       C  0.77584776  0.98248957  0.84667279    -0.03100
C2525       C  0.77791749  0.97922327  0.86586902    -0.06200
C2526       C  0.82181171  0.95763413  0.87450883     0.20700
C2527       C  0.74175569  0.50792444  0.87553931     0.18900
C2528       C  0.69954647  0.53180025  0.86683535    -0.17700
C2529       C  0.69736200  0.53464409  0.84780729    -0.19900
C2530       C  0.73734000  0.51367739  0.83713007     0.20400
C2531       C  0.73509444  0.51595080  0.81801100    -0.32900
C2532       C  0.77218854  0.99052845  0.80839948     0.01100
C2533       C  0.81572017  0.96859577  0.81703433    -0.24200
C2534       C  0.82423775  0.95622878  0.89364238    -0.28800
C2535       C  0.78282060  0.97507299  0.90421146     0.06700
C2536       C  0.74385006  0.50446630  0.89461214    -0.27500
H2537       H  0.89643376  0.92122180  0.87022113     0.11500
H2538       H  0.89254713  0.92629305  0.83687970     0.12600
H2539       H  0.66807759  0.54814030  0.87475127     0.11700
H2540       H  0.66424267  0.55310958  0.84143580     0.10900
H2541       H  0.70210244  0.53413848  0.81144330     0.16300
H2542       H  0.84781907  0.95446486  0.80891054     0.12200
H2543       H  0.85817269  0.94022673  0.90029702     0.15100
H2544       H  0.71251017  0.52060307  0.90265955     0.14800
C2545       C  0.91999741  0.69600579  0.84696692    -0.18000
C2546       C  0.91937660  0.69763286  0.86604798    -0.20200
C2547       C  0.95491862  0.72681341  0.87561156     0.20400
C2548       C  0.99318060  0.75251156  0.86586522    -0.03100
C2549       C  0.99426671  0.75027312  0.84658695    -0.06200
C2550       C  0.95677611  0.72277802  0.83708637     0.20700
C2551       C  0.50609032  0.78886771  0.83733608     0.18900
C2552       C  0.53941847  0.82037460  0.84698673    -0.17700
C2553       C  0.53638036  0.82409788  0.86599918    -0.19900
C2554       C  0.50003056  0.79630450  0.87572911     0.20400
C2555       C  0.49670889  0.79992339  0.89481766    -0.32900
C2556       C  0.98878793  0.75972392  0.90426289     0.01100
C2557       C  0.95254025  0.73117439  0.89470417    -0.24200
C2558       C  0.95657868  0.72274280  0.81790223    -0.28800
C2559       C  0.99460172  0.74820465  0.80807239     0.06700
C2560       C  0.50882661  0.78509126  0.81824840    -0.27500
H2561       H  0.89102444  0.67463757  0.83991839     0.11500
H2562       H  0.89001470  0.67732208  0.87332256     0.12600
H2563       H  0.56778815  0.84228439  0.83981876     0.11700
H2564       H  0.56248451  0.84878552  0.87309858     0.10900
H2565       H  0.52269320  0.82426320  0.90214999     0.16300
H2566       H  0.92287461  0.71176721  0.90217560     0.12200
H2567       H  0.92727307  0.70234504  0.81061068     0.15100
H2568       H  0.53712029  0.80666666  0.81088698     0.14800
C2569       C  0.54307437  0.47066318  0.84860603    -0.18000
C2570       C  0.54020035  0.47381870  0.86760068    -0.20200
C2571       C  0.49833002  0.49895309  0.87605230     0.20400
C2572       C  0.98346002  0.51710741  0.86506639    -0.03100
C2573       C  0.98465293  0.51522863  0.84578470    -0.06200
C2574       C  0.50418440  0.49266911  0.83769438     0.20700
C2575       C  0.94682124  0.03121930  0.83650527     0.18900
C2576       C  0.90731925  0.05790826  0.84578528    -0.17700
C2577       C  0.90677823  0.05959860  0.86485528    -0.19900
C2578       C  0.94587540  0.03490219  0.87497196     0.20400
C2579       C  0.94563511  0.03637569  0.89410073    -0.32900
C2580       C  0.98080217  0.51904608  0.90357989     0.01100
C2581       C  0.49548882  0.50221411  0.89510863    -0.24200
C2582       C  0.50724942  0.48993143  0.81861631    -0.28800
C2583       C  0.98689069  0.50999056  0.80729544     0.06700
C2584       C  0.94754399  0.02901998  0.81737625    -0.27500
H2585       H  0.57589824  0.45111059  0.84244130     0.11500
H2586       H  0.57084658  0.45661418  0.87569552     0.12600
H2587       H  0.87653077  0.07699550  0.83829685     0.11700
H2588       H  0.87555140  0.07995957  0.87170004     0.10900
H2589       H  0.91480862  0.05673330  0.90119391     0.16300
H2590       H  0.52598471  0.48490982  0.90326653     0.12200
H2591       H  0.53999398  0.47046153  0.81234324     0.15100
H2592       H  0.91734529  0.04828674  0.80962303     0.14800
C2593       C  0.77995704  0.74053179  0.54935723    -0.18000
C2594       C  0.78400660  0.73654334  0.56829464    -0.20200
C2595       C  0.76182493  0.77436807  0.57960162     0.20400
C2596       C  0.73576273  0.81700649  0.57177572    -0.03100
C2597       C  0.73167437  0.82105517  0.55258608    -0.06200
C2598       C  0.75371414  0.78244705  0.54139094     0.20700
C2599       C  0.70551224  0.86349539  0.54462120     0.18900
C2600       C  0.68342137  0.90129096  0.55602005    -0.17700
C2601       C  0.68725358  0.89715026  0.57505663    -0.19900
C2602       C  0.71352431  0.85527121  0.58310615     0.20400
C2603       C  0.71759846  0.85058580  0.60222707    -0.32900
C2604       C  0.74238016  0.80727768  0.61007434     0.01100
C2605       C  0.76469560  0.76972948  0.59860124    -0.24200
C2606       C  0.74911765  0.78617126  0.52241069    -0.28800
C2607       C  0.72358957  0.82839354  0.51425144     0.06700
C2608       C  0.70220836  0.86732626  0.52545194    -0.27500
H2609       H  0.79721309  0.71065799  0.54092864     0.11500
H2610       H  0.80423397  0.70363247  0.57410859     0.12600
H2611       H  0.66389905  0.93455850  0.55020246     0.11700
H2612       H  0.67025198  0.92714842  0.58349066     0.10900
H2613       H  0.70022643  0.87970272  0.61096367     0.16300
H2614       H  0.78428490  0.73653286  0.60450458     0.12200
H2615       H  0.76614773  0.75628085  0.51391481     0.15100
H2616       H  0.68240464  0.89999571  0.51928525     0.14800
C2617       C  0.80249792  0.94660310  0.56938130    -0.18000
C2618       C  0.79960859  0.94846263  0.55037241    -0.20200
C2619       C  0.76919043  0.98627429  0.54170247     0.22000
C2620       C  0.77588379  0.42510982  0.55198939    -0.03100
C2621       C  0.77079982  0.42996918  0.57111837    -0.06200
C2622       C  0.77502430  0.98253087  0.58002842     0.20700
C2623       C  0.74352477  0.47250107  0.57855553     0.18900
C2624       C  0.72104175  0.50929328  0.56692129    -0.17700
C2625       C  0.72602924  0.50448386  0.54805298    -0.19900
C2626       C  0.75361191  0.46281584  0.54049608     0.20400
C2627       C  0.75951077  0.45866688  0.52161476    -0.32900
C2628       C  0.73592466  0.02620397  0.51395742     0.01100
C2629       C  0.76550454  0.98773247  0.52267795    -0.24200
C2630       C  0.77671742  0.97999532  0.59910455    -0.28800
C2631       C  0.76183158  0.44134892  0.60928315     0.06700
C2632       C  0.73960480  0.47803223  0.59749859    -0.27500
H2633       H  0.82528007  0.91634276  0.57577430     0.11500
H2634       H  0.82038875  0.91971163  0.54244069     0.12600
H2635       H  0.69984410  0.54203887  0.57242554     0.11700
H2636       H  0.70855541  0.53360775  0.53935573     0.10900
H2637       H  0.74236933  0.48802575  0.51291405     0.16300
H2638       H  0.78641401  0.95933918  0.51459789     0.12200
H2639       H  0.79959844  0.95006357  0.60570454     0.15100
H2640       H  0.71915040  0.51112446  0.60311370     0.14800
C2641       C  0.04048191  0.73924585  0.56792256    -0.18000
C2642       C  0.03650679  0.74363096  0.54899216    -0.20200
C2643       C  0.00846879  0.78458020  0.54113591     0.20400
C2644       C  0.98470872  0.82194802  0.55242602    -0.03100
C2645       C  0.98879664  0.81754806  0.57159281    -0.06200
C2646       C  0.01652085  0.77575574  0.57932390     0.20700
C2647       C  0.46574147  0.85327107  0.58344143     0.18900
C2648       C  0.43815930  0.89454848  0.57553626    -0.17700
C2649       C  0.43415132  0.89901688  0.55652688    -0.19900
C2650       C  0.45738240  0.86214959  0.54503196     0.20400
C2651       C  0.45372964  0.86625733  0.52589284    -0.32900
C2652       C  0.97590363  0.82956781  0.51415856     0.01100
C2653       C  0.00354500  0.78844346  0.52217410    -0.24200
C2654       C  0.01926948  0.77066345  0.59831776    -0.28800
C2655       C  0.99541561  0.80712696  0.60982237     0.06700
C2656       C  0.47009183  0.84837910  0.60251248    -0.27500
H2657       H  0.06203370  0.70704490  0.57365458     0.11500
H2658       H  0.05511851  0.71474742  0.54048321     0.12600
H2659       H  0.42028029  0.92382977  0.58406379     0.11700
H2660       H  0.41353691  0.93177964  0.55080780     0.10900
H2661       H  0.43277483  0.89838075  0.51982860     0.16300
H2662       H  0.02172847  0.75945153  0.51357815     0.12200
H2663       H  0.04000435  0.73810202  0.60418912     0.15100
H2664       H  0.45191974  0.87688353  0.61130567     0.14800
C2665       C  0.43816497  0.09053743  0.57383050    -0.18000
C2666       C  0.43570389  0.09304040  0.55479767    -0.20200
C2667       C  0.46347681  0.05753965  0.54405769     0.20400
C2668       C  0.99381310  0.01930092  0.55211567    -0.03100
C2669       C  0.99645950  0.01687445  0.57130227    -0.06200
C2670       C  0.46887939  0.05279243  0.58245071     0.20700
C2671       C  0.04226092  0.39384688  0.58253542     0.18900
C2672       C  0.06951301  0.35217367  0.57473395    -0.17700
C2673       C  0.07414687  0.34769623  0.55573703    -0.19900
C2674       C  0.05226773  0.38513728  0.54415080     0.20400
C2675       C  0.05718634  0.38138533  0.52503273    -0.32900
C2676       C  0.03622032  0.42005381  0.51365321     0.01100
C2677       C  0.46167225  0.06015751  0.52494302    -0.24200
C2678       C  0.47255709  0.05082872  0.60150973    -0.28800
C2679       C  0.01150019  0.44182761  0.60923682     0.06700
C2680       C  0.03744032  0.39888673  0.60160382    -0.27500
H2681       H  0.41695136  0.11884159  0.58181663     0.11500
H2682       H  0.41294965  0.12340252  0.54846071     0.12600
H2683       H  0.08673738  0.32266154  0.58332303     0.11700
H2684       H  0.09437467  0.31459344  0.55009388     0.10900
H2685       H  0.07810238  0.34910718  0.51905469     0.16300
H2686       H  0.43854648  0.08987941  0.51833468     0.12200
H2687       H  0.45129129  0.07870457  0.60969496     0.15100
H2688       H  0.05515972  0.37033118  0.61048326     0.14800
C2689       C  0.77985927  0.74563699  0.36842321    -0.18000
C2690       C  0.78313143  0.74205566  0.34947149    -0.20200
C2691       C  0.76027409  0.77998133  0.33838001     0.20400
C2692       C  0.73436966  0.82237434  0.34641007    -0.03100
C2693       C  0.73112730  0.82605196  0.36563400    -0.06200
C2694       C  0.75375161  0.78725996  0.37661584     0.20700
C2695       C  0.70511705  0.86819182  0.37384697     0.18900
C2696       C  0.68247706  0.90617699  0.36264015    -0.17700
C2697       C  0.68541348  0.90236164  0.34355662    -0.19900
C2698       C  0.71139119  0.86066182  0.33525279     0.20400
C2699       C  0.71447365  0.85609765  0.31606769    -0.32900
C2700       C  0.73913993  0.81291779  0.30805195     0.01100
C2701       C  0.76229753  0.77555705  0.31938888    -0.24200
C2702       C  0.74969747  0.79035374  0.39561693    -0.28800
C2703       C  0.72406441  0.83207466  0.40403699     0.06700
C2704       C  0.70234846  0.87138934  0.39305960    -0.27500
H2705       H  0.79754055  0.71563371  0.37668484     0.11500
H2706       H  0.80322089  0.70932163  0.34347645     0.12600
H2707       H  0.66304554  0.93924351  0.36864118     0.11700
H2708       H  0.66790898  0.93243945  0.33528431     0.10900
H2709       H  0.69647687  0.88511693  0.30744545     0.16300
H2710       H  0.78185987  0.74250255  0.31337484     0.12200
H2711       H  0.76704042  0.76022238  0.40392706     0.15100
H2712       H  0.68252372  0.90373615  0.39942693     0.14800
C2713       C  0.80197098  0.94934536  0.36748806    -0.18000
C2714       C  0.80369457  0.94751855  0.34843579    -0.20200
C2715       C  0.77613406  0.98392560  0.33799210     0.20400
C2716       C  0.77624706  0.43880743  0.34639733    -0.03100
C2717       C  0.78089647  0.43399861  0.36553356    -0.06200
C2718       C  0.77274612  0.98765728  0.37641169     0.20700
C2719       C  0.76467334  0.47485038  0.37690075     0.18900
C2720       C  0.74414670  0.52004930  0.36914304    -0.17700
C2721       C  0.73957112  0.52480975  0.35023778    -0.19900
C2722       C  0.75543111  0.48444205  0.33876266     0.20400
C2723       C  0.75110637  0.48920440  0.31978768    -0.32900
C2724       C  0.74812631  0.01766241  0.30850402     0.01100
C2725       C  0.77592972  0.98113904  0.31888842    -0.24200
C2726       C  0.76942602  0.98874799  0.39548751    -0.28800
C2727       C  0.74034350  0.02740380  0.40436953     0.06700
C2728       C  0.76921317  0.46996953  0.39584441    -0.27500
H2729       H  0.82251991  0.92006890  0.37525499     0.11500
H2730       H  0.82543804  0.91681693  0.34186230     0.12600
H2731       H  0.73159742  0.55179102  0.37771229     0.11700
H2732       H  0.72363701  0.56012011  0.34458771     0.10900
H2733       H  0.73540389  0.52448549  0.31401766     0.16300
H2734       H  0.79759040  0.95070881  0.31207816     0.12200
H2735       H  0.78977305  0.95971190  0.40345670     0.15100
H2736       H  0.75647313  0.50156879  0.40445966     0.14800
C2737       C  0.53399680  0.73923481  0.35034497    -0.18000
C2738       C  0.53002242  0.74298991  0.36928304    -0.20200
C2739       C  0.50393141  0.78487853  0.37732187     0.20400
C2740       C  0.98238399  0.82520790  0.36585675    -0.03100
C2741       C  0.48595801  0.81988864  0.34702301    -0.06200
C2742       C  0.51191886  0.77728578  0.33911673     0.20700
C2743       C  0.96393801  0.85961498  0.33540028     0.18900
C2744       C  0.93753842  0.90135572  0.34350896    -0.17700
C2745       C  0.93388107  0.90536623  0.36255474    -0.19900
C2746       C  0.95610965  0.86749051  0.37389114     0.20400
C2747       C  0.95265004  0.87093110  0.39306358    -0.32900
C2748       C  0.97387997  0.83170069  0.40416109     0.01100
C2749       C  0.49933036  0.78828581  0.39629336    -0.24200
C2750       C  0.51480102  0.77289061  0.32011500    -0.28800
C2751       C  0.99270805  0.81172735  0.30840015     0.06700
C2752       C  0.96783382  0.85496692  0.31627671    -0.27500
H2753       H  0.55409498  0.70633860  0.34446912     0.11500
H2754       H  0.54719485  0.71294170  0.37765554     0.12600
H2755       H  0.92029314  0.93131246  0.33511905     0.11700
H2756       H  0.91422939  0.93850038  0.36842687     0.10900
H2757       H  0.93270495  0.90341253  0.39930496     0.16300
H2758       H  0.51627567  0.75818540  0.40471782     0.12200
H2759       H  0.53423458  0.73970502  0.31414518     0.15100
H2760       H  0.95017439  0.88398050  0.30756742     0.14800
C2761       C  0.55076162  0.94984115  0.36816542    -0.18000
C2762       C  0.55317878  0.94779116  0.34913926    -0.20200
C2763       C  0.52620341  0.98417167  0.33852452     0.20400
C2764       C  0.99729001  0.02359080  0.34700806    -0.03100
C2765       C  0.99484557  0.02579520  0.36621182    -0.06200
C2766       C  0.52124748  0.98826352  0.37689735     0.20700
C2767       C  0.00835098  0.46738470  0.37672822     0.18900
C2768       C  0.98410353  0.51071538  0.36894552    -0.17700
C2769       C  0.98005102  0.51540761  0.35003592    -0.19900
C2770       C  0.00017230  0.47684115  0.33858663     0.20400
C2771       C  0.99743705  0.48217842  0.31961334    -0.32900
C2772       C  0.00038963  0.01770929  0.30871643     0.01100
C2773       C  0.52712897  0.98130974  0.31942059    -0.24200
C2774       C  0.51742630  0.98956134  0.39593230    -0.28800
C2775       C  0.98844751  0.02872964  0.40446258     0.06700
C2776       C  0.01356074  0.46326452  0.39565756    -0.27500
H2777       H  0.57102865  0.92064886  0.37606047     0.11500
H2778       H  0.57502609  0.91692501  0.34270889     0.12600
H2779       H  0.96858617  0.54122836  0.37749526     0.11700
H2780       H  0.96151633  0.54945004  0.34435625     0.10900
H2781       H  0.97956742  0.51647828  0.31384470     0.16300
H2782       H  0.54909671  0.95082901  0.31275738     0.12200
H2783       H  0.53763188  0.96060196  0.40398182     0.15100
H2784       H  0.99844751  0.49394349  0.40423814     0.14800
C2785       C  0.86238324  0.68764038  0.05432756    -0.18000
C2786       C  0.86065216  0.68919244  0.07342404    -0.20200
C2787       C  0.81820827  0.71149606  0.08249474     0.20400
C2788       C  0.77649273  0.73121431  0.07214628    -0.03100
C2789       C  0.77798704  0.72909561  0.05286107    -0.06200
C2790       C  0.82137650  0.70762883  0.04389462     0.20700
C2791       C  0.73616487  0.74872422  0.04257383     0.18900
C2792       C  0.69328994  0.77026392  0.05160550    -0.17700
C2793       C  0.69189634  0.77253683  0.07066025    -0.19900
C2794       C  0.73329689  0.75320106  0.08104652     0.20400
C2795       C  0.73213637  0.75544040  0.10016804    -0.32900
C2796       C  0.77379253  0.73657270  0.11065961     0.01100
C2797       C  0.81688939  0.71482369  0.10167755    -0.24200
C2798       C  0.82309789  0.70683827  0.02469437    -0.28800
C2799       C  0.78134893  0.72604638  0.01432619     0.06700
C2800       C  0.73793212  0.74662669  0.02344546    -0.27500
H2801       H  0.89626771  0.67155401  0.04770284     0.11500
H2802       H  0.89315461  0.67406306  0.08110137     0.12600
H2803       H  0.66083152  0.78550679  0.04392450     0.11700
H2804       H  0.65837301  0.78945945  0.07727983     0.10900
H2805       H  0.69877448  0.77236094  0.10690582     0.16300
H2806       H  0.84901130  0.69985653  0.10960574     0.12200
H2807       H  0.85663779  0.69073303  0.01783321     0.15100
H2808       H  0.70568072  0.76181182  0.01562794     0.14800
C2809       C  0.87095422  0.93585428  0.05390535    -0.18000
C2810       C  0.86924517  0.93732960  0.07301752    -0.20200
C2811       C  0.82747667  0.96102458  0.08208602     0.20400
C2812       C  0.77612501  0.48163930  0.07128433    -0.03100
C2813       C  0.77829579  0.47873748  0.05204060    -0.06200
C2814       C  0.83059072  0.95734954  0.04349619     0.20700
C2815       C  0.73589041  0.49584377  0.04154454     0.18900
C2816       C  0.69156079  0.51506747  0.05031698    -0.17700
C2817       C  0.68944999  0.51801891  0.06934554    -0.19900
C2818       C  0.73161436  0.50175756  0.07995218     0.20400
C2819       C  0.73003027  0.50539844  0.09905486    -0.32900
C2820       C  0.78332153  0.98760301  0.11009267     0.01100
C2821       C  0.82589923  0.96424440  0.10126387    -0.24200
C2822       C  0.83203852  0.95668086  0.02429354    -0.28800
C2823       C  0.79071661  0.97753423  0.01408549     0.06700
C2824       C  0.73855313  0.49372430  0.02245922    -0.27500
H2825       H  0.90418225  0.91845426  0.04725758     0.11500
H2826       H  0.90113625  0.92090090  0.08070023     0.12600
H2827       H  0.65856932  0.52814967  0.04244743     0.11700
H2828       H  0.65488807  0.53330745  0.07576625     0.10900
H2829       H  0.69576870  0.52080564  0.10565725     0.16300
H2830       H  0.85723028  0.94797666  0.10928414     0.12200
H2831       H  0.86481245  0.93936253  0.01732359     0.15100
H2832       H  0.70588514  0.50716832  0.01447996     0.14800
C2833       C  0.54686184  0.73316219  0.05112369    -0.18000
C2834       C  0.54919970  0.72917273  0.07010152    -0.20200
C2835       C  0.50748917  0.74561862  0.08087646     0.20400
C2836       C  0.98300024  0.75902780  0.07215675    -0.03100
C2837       C  0.46065536  0.77069800  0.05322449    -0.06200
C2838       C  0.50273650  0.75359444  0.04257223     0.20700
C2839       C  0.94017180  0.78533703  0.04378538     0.18900
C2840       C  0.89974580  0.80706889  0.05409506    -0.17700
C2841       C  0.90077509  0.80501663  0.07319778    -0.19900
C2842       C  0.94192054  0.78052719  0.08236380     0.20400
C2843       C  0.94248498  0.77651476  0.10150407    -0.32900
C2844       C  0.46792106  0.75753502  0.11081312     0.01100
C2845       C  0.50968633  0.74143587  0.09992633    -0.24200
C2846       C  0.50011619  0.75699113  0.02353592    -0.28800
C2847       C  0.98052700  0.76540212  0.01440936     0.06700
C2848       C  0.93922290  0.78647083  0.02457194    -0.27500
H2849       H  0.57957102  0.72004102  0.04311647     0.11500
H2850       H  0.58367353  0.71310754  0.07635573     0.12600
H2851       H  0.86691599  0.82499528  0.04737163     0.11700
H2852       H  0.86876671  0.82154454  0.08079476     0.10900
H2853       H  0.91081834  0.79282961  0.10934980     0.16300
H2854       H  0.54401855  0.72538470  0.10629855     0.12200
H2855       H  0.53265511  0.74352825  0.01549520     0.15100
H2856       H  0.90677849  0.80426542  0.01755489     0.14800
C2857       C  0.90426932  0.05737051  0.07204088    -0.18000
C2858       C  0.90402682  0.05891703  0.05296361    -0.20200
C2859       C  0.94487190  0.03688732  0.04296292     0.20400
C2860       C  0.98327066  0.50955423  0.05234329    -0.03100
C2861       C  0.98445526  0.50856536  0.07163068    -0.06200
C2862       C  0.94502448  0.03309703  0.08144694     0.20700
C2863       C  0.50782848  0.49502522  0.08048973     0.18900
C2864       C  0.54800326  0.47497078  0.06968378    -0.17700
C2865       C  0.54512370  0.47739153  0.05065991    -0.19900
C2866       C  0.50199424  0.49987954  0.04207706     0.20400
C2867       C  0.49892936  0.50234009  0.02298458    -0.32900
C2868       C  0.98089328  0.51137392  0.01383916     0.01100
C2869       C  0.94440560  0.03719212  0.02381551    -0.24200
C2870       C  0.94452901  0.02927774  0.10055246    -0.28800
C2871       C  0.98657081  0.50593563  0.11012952     0.06700
C2872       C  0.51058921  0.49271093  0.09958389    -0.27500
H2873       H  0.87193254  0.07403130  0.07942778     0.11500
H2874       H  0.87145733  0.07662428  0.04601522     0.12600
H2875       H  0.58173005  0.45737051  0.07595221     0.11700
H2876       H  0.57668395  0.46160562  0.04264969     0.10900
H2877       H  0.53036468  0.48667876  0.01486933     0.16300
H2878       H  0.91202275  0.05454565  0.01662845     0.12200
H2879       H  0.91249377  0.04566265  0.10819197     0.15100
H2880       H  0.54425630  0.47525216  0.10595914     0.14800
loop_ 
_geom_bond_atom_site_label_1 
_geom_bond_atom_site_label_2 
_geom_bond_distance 
_geom_bond_site_symmetry_2 
_ccdc_geom_bond_type 
O1           C11   1.278       .  A
O1         Ni729   1.915       .  S
O2         C1452   1.281   1_465  A
O2           Ni9   1.911       .  S
O3           C13   1.280   1_455  A
O3           Ni9   1.910   1_545  S
O4           C14   1.282   1_455  A
O4         Ni729   1.917       .  S
O5         C1454   1.278       .  A
O5         Ni730   1.905       .  S
O6         C1453   1.279       .  A
O6          Ni10   1.908       .  S
O7          C732   1.285       .  A
O7         Ni730   1.937       .  S
O8         C2171   1.283       .  A
O8          Ni10   1.927       .  S
Ni9         O721   1.916       .  S
Ni9         O724   1.906       .  S
Ni9       Ni1450   2.393   1_465  S
Ni10        O725   1.912   1_545  S
Ni10        O727   1.926       .  S
Ni10      Ni1449   2.392       .  S
C11        O2168   1.284   1_455  A
C11        C1507   1.467       .  S
C12        O1442   1.281       .  A
C12         O727   1.283       .  A
C12         C711   1.480       .  S
C13        O1446   1.279       .  A
C13          C28   1.457       .  S
C14        O1445   1.278       .  A
C14          C27   1.459       .  S
O15          C25   1.280   1_455  A
O15         Ni23   1.919       .  S
O16          C26   1.282   1_455  A
O16         Ni23   1.917       .  S
O17          C27   1.280   1_455  A
O17         Ni23   1.913       .  S
O18          C28   1.279   1_455  A
O18         Ni23   1.907       .  S
O19        C1468   1.280       .  A
O19         Ni24   1.911       .  S
O20        C1467   1.280       .  A
O20         Ni24   1.909       .  S
O21        C1466   1.282       .  A
O21         Ni24   1.921       .  S
O22        C1465   1.281       .  A
O22         Ni24   1.919       .  S
Ni23      Ni1464   2.393   1_455  S
Ni24      Ni1463   2.393       .  S
C25        O1462   1.280       .  A
C25        C1521   1.460       .  S
C26        O1461   1.281       .  A
C26         C684   1.477       .  S
C27        O1460   1.280       .  A
C28        O1459   1.280       .  A
O29          C39   1.280       .  A
O29         Ni37   1.919       .  S
O30         C760   1.282       .  A
O30        Ni757   1.923       .  S
O31          C41   1.281       .  A
O31        Ni757   1.915   1_545  S
O32          C42   1.280       .  A
O32         Ni37   1.912       .  S
O33          C42   1.280       .  A
O33         Ni38   1.911       .  S
O34          C41   1.278       .  A
O34        Ni758   1.904   1_545  S
O35          C40   1.284       .  A
O35         Ni38   1.928       .  S
O36         C759   1.280       .  A
O36        Ni758   1.919       .  S
Ni37        O750   1.922       .  S
Ni37        O751   1.918       .  S
Ni37        Ni38   2.391       .  S
Ni38        O754   1.914       .  S
Ni38        O756   1.926       .  S
C39         O756   1.282       .  A
C39          C95   1.465       .  S
C40         O750   1.282       .  A
C40         C660   1.485       .  S
C41          C55   1.457       .  S
C42          C56   1.460       .  S
O43          C53   1.279       .  A
O43         Ni51   1.914       .  S
O44          C54   1.281       .  A
O44         Ni51   1.911       .  S
O45          C55   1.280       .  A
O45         Ni51   1.909       .  S
O46          C56   1.279       .  A
O46         Ni51   1.909       .  S
O47          C56   1.280       .  A
O47         Ni52   1.914       .  S
O48          C55   1.279       .  A
O48         Ni52   1.910       .  S
O49          C54   1.283       .  A
O49         Ni52   1.924       .  S
O50          C53   1.282       .  A
O50         Ni52   1.925       .  S
Ni51        Ni52   2.393       .  S
C53         C109   1.461       .  S
C54         C636   1.478       .  S
O57        C1507   1.283       .  A
O57       Ni1505   1.926       .  S
O58          C68   1.283       .  A
O58         Ni65   1.931       .  S
O59          C69   1.279       .  A
O59         Ni65   1.906       .  S
O60          C70   1.279       .  A
O60       Ni1505   1.910       .  S
O61         C790   1.281       .  A
O61       Ni1506   1.913   1_455  S
O62         C789   1.280       .  A
O62         Ni66   1.909       .  S
O63        C2228   1.280   1_655  A
O63       Ni1506   1.915       .  S
O64         C787   1.279       .  A
O64         Ni66   1.915       .  S
Ni65       O1497   1.929       .  S
Ni65       O1500   1.908       .  S
Ni65       Ni786   2.391       .  S
Ni66       O1501   1.917       .  S
Ni66       O1503   1.916       .  S
Ni66       Ni785   2.393   1_545  S
C67        O1497   1.284       .  A
C67         O784   1.280       .  A
C67        C1451   1.470       .  S
C68        O2223   1.283       .  A
C68         C612   1.488       .  S
C69         O782   1.279       .  A
C69          C98   1.455       .  S
C70         O781   1.280       .  A
C70          C97   1.458       .  S
O71        C1521   1.282       .  A
O71       Ni1519   1.921   1_655  S
O72          C82   1.283       .  A
O72         Ni79   1.926       .  S
O73          C83   1.279       .  A
O73         Ni79   1.908       .  S
O74          C84   1.279       .  A
O74       Ni1519   1.907       .  S
O75          C84   1.281       .  A
O75       Ni1520   1.912   1_455  S
O76          C83   1.280       .  A
O76         Ni80   1.909       .  S
O77        C1522   1.281   1_655  A
O77       Ni1520   1.914       .  S
O78          C81   1.279       .  A
O78         Ni80   1.915       .  S
Ni79       O1511   1.924       .  S
Ni79       O1514   1.907       .  S
Ni79        Ni80   2.393       .  S
Ni80       O1515   1.915       .  S
Ni80       O1517   1.915       .  S
C81        O1511   1.282       .  A
C81        C1465   1.461       .  S
C82        O1517   1.281       .  A
C82         C591   1.479       .  S
C83         C111   1.456       .  S
C84         C112   1.458       .  S
O85          C95   1.282       .  A
O85         Ni93   1.923       .  S
O86          C96   1.283       .  A
O86         Ni93   1.925       .  S
O87          C97   1.280       .  A
O87         Ni93   1.911       .  S
O88          C98   1.279       .  A
O88         Ni93   1.907       .  S
O89         C818   1.279       .  A
O89         Ni94   1.908       .  S
O90         C817   1.279       .  A
O90         Ni94   1.907       .  S
O91         C816   1.282       .  A
O91         Ni94   1.920       .  S
O92         C815   1.282       .  A
O92         Ni94   1.922       .  S
Ni93       Ni814   2.392       .  S
Ni94       Ni813   2.393   1_545  S
C95         O812   1.280       .  A
C96         O811   1.283       .  A
C96         C564   1.485       .  S
C97         O810   1.279       .  A
C98         O809   1.279       .  A
O99         C109   1.281       .  A
O99        Ni107   1.921       .  S
O100        C110   1.282       .  A
O100       Ni107   1.919       .  S
O101        C111   1.280       .  A
O101       Ni107   1.909       .  S
O102        C112   1.279       .  A
O102       Ni107   1.908       .  S
O103        C112   1.280       .  A
O103       Ni108   1.912       .  S
O104        C111   1.279       .  A
O104       Ni108   1.907       .  S
O105        C110   1.281       .  A
O105       Ni108   1.917       .  S
O106        C109   1.280       .  A
O106       Ni108   1.918       .  S
Ni107      Ni108   2.393       .  S
C110        C540   1.476       .  S
O113       C1563   1.284       .  A
O113      Ni1561   1.935       .  S
O114        C844   1.285       .  A
O114       Ni121   1.939       .  S
O115        C125   1.280       .  A
O115       Ni121   1.910       .  S
O116        C126   1.279       .  A
O116      Ni1561   1.908       .  S
O117        C846   1.280       .  A
O117      Ni1562   1.912   1_455  S
O118        C845   1.277       .  A
O118       Ni122   1.905       .  S
O119       C1564   1.282       .  A
O119      Ni1562   1.922       .  S
O120        C843   1.282       .  A
O120       Ni122   1.925       .  S
Ni121      O1553   1.938       .  S
Ni121      O1556   1.907       .  S
Ni121      Ni842   2.389       .  S
Ni122      O1557   1.911       .  S
Ni122      O1559   1.925       .  S
Ni122      Ni841   2.391   1_545  S
C123       O1553   1.285       .  A
C123        O840   1.282       .  A
C123        C615   1.488       .  S
C124        O834   1.280   1_545  A
C124       O1559   1.283       .  A
C124        C516   1.476       .  S
C125        O838   1.278       .  A
C125        C154   1.456       .  S
C126        O837   1.280       .  A
C126        C153   1.458       .  S
O127        C137   1.280       .  A
O127      Ni1575   1.911       .  S
O128        C138   1.278       .  A
O128       Ni135   1.905       .  S
O129       C1579   1.282       .  A
O129      Ni1575   1.915       .  S
O130        C140   1.282       .  A
O130       Ni135   1.918       .  S
O131       C1580   1.281       .  A
O131      Ni1576   1.919       .  S
O132        C139   1.282       .  A
O132       Ni136   1.923       .  S
O133        C138   1.280       .  A
O133       Ni136   1.912       .  S
O134        C137   1.278       .  A
O134      Ni1576   1.906       .  S
Ni135      O1567   1.911       .  S
Ni135      O1569   1.919       .  S
Ni135      Ni136   2.391       .  S
Ni136      O1571   1.921       .  S
Ni136      O1574   1.906       .  S
C137        C167   1.457       .  S
C138        C168   1.457       .  S
C139       O1569   1.282       .  A
C139        C492   1.481       .  S
C140       O1571   1.282       .  A
C140        C588   1.478       .  S
O141        C871   1.281       .  A
O141       Ni149   1.921       .  S
O142        C872   1.282       .  A
O142       Ni149   1.922       .  S
O143        C873   1.278       .  A
O143       Ni149   1.906       .  S
O144        C874   1.280       .  A
O144       Ni149   1.912       .  S
O145        C154   1.278       .  A
O145       Ni150   1.907       .  S
O146        C153   1.280       .  A
O146       Ni150   1.911       .  S
O147        C152   1.285       .  A
O147       Ni150   1.937       .  S
O148        C151   1.284       .  A
O148       Ni150   1.937       .  S
Ni149      Ni870   2.391   1_545  S
Ni150      Ni869   2.390       .  S
C151        O861   1.281       .  A
C151        C468   1.483       .  S
C152        O862   1.281       .  A
C152        C567   1.486       .  S
C153        O863   1.279       .  A
C154        O864   1.280       .  A
O155        C165   1.281       .  A
O155       Ni163   1.912       .  S
O156        C166   1.281       .  A
O156       Ni163   1.914       .  S
O157        C167   1.278       .  A
O157       Ni163   1.906       .  S
O158        C168   1.280       .  A
O158       Ni163   1.912       .  S
O159        C168   1.278       .  A
O159       Ni164   1.906       .  S
O160        C167   1.280       .  A
O160       Ni164   1.912       .  S
O161        C166   1.282       .  A
O161       Ni164   1.921       .  S
O162        C165   1.281       .  A
O162       Ni164   1.920       .  S
Ni163      Ni164   2.391       .  S
C165        C447   1.475       .  S
C166        C543   1.475       .  S
O169        C179   1.283       .  A
O169       Ni177   1.927       .  S
O170        C900   1.285       .  A
O170       Ni897   1.938       .  S
O171        C181   1.280       .  A
O171       Ni897   1.916       .  S
O172        C182   1.278       .  A
O172       Ni177   1.908       .  S
O173       C1622   1.281   1_455  A
O173       Ni178   1.917       .  S
O174       C1621   1.278   1_455  A
O174       Ni898   1.904       .  S
O175       C1620   1.282   1_455  A
O175       Ni178   1.918       .  S
O176       C2339   1.283   1_455  A
O176       Ni898   1.923       .  S
Ni177       O890   1.927       .  S
Ni177       O891   1.913   1_545  S
Ni177     Ni1618   2.390       .  S
Ni178       O894   1.910   1_545  S
Ni178       O896   1.917       .  S
Ni178     Ni1617   2.391   1_455  S
C179       O2336   1.281       .  A
C179        C708   1.482   1_556  S
C180        O890   1.283       .  A
C180       O1615   1.281       .  A
C180        C420   1.480       .  S
C181       O1614   1.279       .  A
C181        C195   1.460       .  S
C182       O1613   1.280       .  A
C182        C196   1.459       .  S
O183        C193   1.282       .  A
O183       Ni191   1.927       .  S
O184        C194   1.283       .  A
O184       Ni191   1.927       .  S
O185        C195   1.280       .  A
O185       Ni191   1.915       .  S
O186        C196   1.280       .  A
O186       Ni191   1.911       .  S
O187       C1636   1.280   1_455  A
O187       Ni192   1.913       .  S
O188       C1635   1.281   1_455  A
O188       Ni192   1.912       .  S
O189       C1634   1.281   1_455  A
O189       Ni192   1.911       .  S
O190       C1633   1.280   1_455  A
O190       Ni192   1.910       .  S
Ni191     Ni1632   2.390       .  S
Ni192     Ni1631   2.391   1_455  S
C193       O1630   1.280       .  A
C193        C396   1.474       .  S
C194       O1629   1.281       .  A
C194        C687   1.480   1_556  S
C195       O1628   1.279       .  A
C196       O1627   1.279       .  A
O197        C927   1.282       .  A
O197       Ni925   1.917       .  S
O198        C208   1.283       .  A
O198       Ni205   1.925       .  S
O199        C209   1.279       .  A
O199       Ni205   1.909       .  S
O200        C210   1.281       .  A
O200       Ni925   1.917   1_545  S
O201        C210   1.279       .  A
O201       Ni926   1.907   1_545  S
O202        C209   1.281       .  A
O202       Ni206   1.915       .  S
O203        C928   1.282       .  A
O203       Ni926   1.917       .  S
O204        C207   1.283       .  A
O204       Ni206   1.922       .  S
Ni205       O917   1.925       .  S
Ni205       O920   1.914       .  S
Ni205      Ni206   2.390       .  S
Ni206       O921   1.909       .  S
Ni206       O923   1.921       .  S
C207        O917   1.283       .  A
C207        C375   1.483       .  S
C208        O923   1.282       .  A
C208        C663   1.484   1_556  S
C209        C224   1.460       .  S
C210        C223   1.461       .  S
O211        C221   1.282       .  A
O211       Ni219   1.914       .  S
O212        C222   1.281       .  A
O212       Ni219   1.915       .  S
O213        C223   1.280       .  A
O213       Ni219   1.909       .  S
O214        C224   1.279       .  A
O214       Ni219   1.910       .  S
O215        C224   1.280       .  A
O215       Ni220   1.913       .  S
O216        C223   1.280       .  A
O216       Ni220   1.916       .  S
O217        C222   1.282       .  A
O217       Ni220   1.920       .  S
O218        C221   1.281       .  A
O218       Ni220   1.920       .  S
Ni219      Ni220   2.390       .  S
C221        C639   1.477   1_556  S
C222        C351   1.473       .  S
O225        C955   1.284       .  A
O225       Ni953   1.932       .  S
O226        C236   1.282       .  A
O226       Ni233   1.924       .  S
O227        C237   1.279       .  A
O227       Ni233   1.908       .  S
O228        C238   1.280       .  A
O228       Ni953   1.912       .  S
O229       C1678   1.280   1_455  A
O229       Ni954   1.910       .  S
O230       C1677   1.279   1_455  A
O230       Ni234   1.910   1_545  S
O231       C2396   1.283   1_455  A
O231       Ni954   1.922       .  S
O232       C1675   1.280   1_565  A
O232       Ni234   1.919       .  S
Ni233       O945   1.924       .  S
Ni233       O948   1.913   1_545  S
Ni233     Ni1674   2.392       .  S
Ni234       O949   1.906       .  S
Ni234       O951   1.916   1_565  S
Ni234     Ni1673   2.393   1_465  S
C235        O945   1.282       .  A
C235       O1672   1.280       .  A
C235        C291   1.465       .  S
C236       O2391   1.282       .  A
C236        C423   1.480       .  S
C237       O1670   1.279       .  A
C237        C252   1.456       .  S
C238       O1669   1.280       .  A
C238        C251   1.460       .  S
O239        C249   1.281       .  A
O239       Ni247   1.922       .  S
O240        C250   1.281       .  A
O240       Ni247   1.922       .  S
O241        C251   1.280       .  A
O241       Ni247   1.914       .  S
O242        C252   1.279       .  A
O242       Ni247   1.906       .  S
O243       C1692   1.280   1_455  A
O243       Ni248   1.912       .  S
O244       C1691   1.281   1_455  A
O244       Ni248   1.913       .  S
O245       C1690   1.281   1_455  A
O245       Ni248   1.913       .  S
O246       C1689   1.280   1_455  A
O246       Ni248   1.918       .  S
Ni247     Ni1688   2.393       .  S
Ni248     Ni1687   2.393   1_455  S
C249       O1686   1.281       .  A
C249        C305   1.466       .  S
C250       O1685   1.282       .  A
C250        C399   1.475       .  S
C251       O1684   1.280       .  A
C252       O1683   1.280       .  A
O253        C983   1.282       .  A
O253       Ni981   1.925       .  S
O254        C984   1.282       .  A
O254       Ni261   1.917       .  S
O255        C265   1.279       .  A
O255       Ni261   1.909   1_545  S
O256        C266   1.279       .  A
O256       Ni981   1.909       .  S
O257        C266   1.281       .  A
O257       Ni982   1.913       .  S
O258        C265   1.280       .  A
O258       Ni262   1.911   1_545  S
O259        C264   1.282       .  A
O259       Ni982   1.920       .  S
O260        C263   1.280       .  A
O260       Ni262   1.918       .  S
Ni261       O973   1.919       .  S
Ni261       O976   1.910       .  S
Ni261      Ni262   2.393       .  S
Ni262       O977   1.906       .  S
Ni262       O979   1.916       .  S
C263        O973   1.281       .  A
C263        C319   1.460   1_565  S
C264        O974   1.284       .  A
C264        C372   1.484       .  S
C265        C280   1.459       .  S
C266        C279   1.459       .  S
O267        C277   1.279       .  A
O267       Ni275   1.915       .  S
O268        C278   1.280       .  A
O268       Ni275   1.912       .  S
O269        C279   1.281       .  A
O269       Ni275   1.915       .  S
O270        C280   1.280       .  A
O270       Ni275   1.912       .  S
O271        C280   1.279       .  A
O271       Ni276   1.909       .  S
O272        C279   1.278       .  A
O272       Ni276   1.906       .  S
O273        C278   1.282       .  A
O273       Ni276   1.920       .  S
O274        C277   1.281       .  A
O274       Ni276   1.921       .  S
Ni275      Ni276   2.393       .  S
C277        C333   1.459       .  S
C278        C348   1.472       .  S
O281        C291   1.280       .  A
O281       Ni289   1.918       .  S
O282        C292   1.281       .  A
O282       Ni289   1.917       .  S
O283        C293   1.279       .  A
O283       Ni289   1.907       .  S
O284        C294   1.280       .  A
O284      Ni1729   1.910       .  S
O285       C1014   1.279       .  A
O285      Ni1730   1.907       .  S
O286       C1013   1.279       .  A
O286       Ni290   1.907       .  S
O287       C1012   1.284       .  A
O287       Ni290   1.934       .  S
O288       C1011   1.284       .  A
O288       Ni290   1.933       .  S
Ni289      O1724   1.913       .  S
Ni289     Ni1010   2.393   1_545  S
Ni290      O1725   1.906       .  S
Ni290     Ni1009   2.391       .  S
C291       O1008   1.282   1_545  A
C292       O1007   1.282   1_545  A
C292        C519   1.476       .  S
C293       O1006   1.280   1_545  A
C293        C322   1.456       .  S
C294       O1005   1.279   1_545  A
C294        C321   1.457       .  S
O295        C305   1.283       .  A
O295       Ni303   1.927       .  S
O296        C306   1.283       .  A
O296       Ni303   1.927       .  S
O297        C307   1.279       .  A
O297      Ni1743   1.907       .  S
O298        C308   1.279       .  A
O298       Ni303   1.908       .  S
O299        C308   1.279       .  A
O299       Ni304   1.908       .  S
O300        C307   1.281       .  A
O300      Ni1744   1.912       .  S
O301        C306   1.282       .  A
O301       Ni304   1.916       .  S
O302        C305   1.279       .  A
O302       Ni304   1.919       .  S
Ni303      O1737   1.907       .  S
Ni303      Ni304   2.392       .  S
Ni304      O1740   1.913       .  S
C306        C495   1.481       .  S
C307        C335   1.458       .  S
C308        C336   1.456       .  S
O309        C319   1.280       .  A
O309       Ni317   1.916       .  S
O310        C320   1.281       .  A
O310       Ni317   1.916       .  S
O311        C321   1.279       .  A
O311       Ni317   1.908       .  S
O312        C322   1.280       .  A
O312       Ni317   1.912       .  S
O313       C1042   1.279       .  A
O313       Ni318   1.907       .  S
O314       C1041   1.281       .  A
O314       Ni318   1.913       .  S
O315       C1040   1.282       .  A
O315       Ni318   1.925       .  S
O316       C1039   1.281       .  A
O316       Ni318   1.920       .  S
Ni317     Ni1038   2.394   1_545  S
Ni318     Ni1037   2.392       .  S
C319       O1036   1.281   1_545  A
C320       O1035   1.282   1_545  A
C320        C471   1.474       .  S
C321       O1034   1.280   1_545  A
C322       O1033   1.279   1_545  A
O323        C333   1.280       .  A
O323       Ni331   1.918       .  S
O324        C334   1.282       .  A
O324       Ni331   1.918       .  S
O325        C335   1.279       .  A
O325       Ni331   1.907       .  S
O326        C336   1.279       .  A
O326       Ni331   1.908       .  S
O327        C336   1.279       .  A
O327       Ni332   1.907       .  S
O328        C335   1.281       .  A
O328       Ni332   1.913       .  S
O329        C334   1.281       .  A
O329       Ni332   1.919       .  S
O330        C333   1.280       .  A
O330       Ni332   1.917       .  S
Ni331      Ni332   2.393       .  S
C334        C444   1.477       .  S
C337        C338   1.398       .  A
C337        C342   1.403       .  A
C337        H353   1.084       .  S
C338        C339   1.404       .  A
C338        H354   1.083       .  S
C339        C349   1.401       .  A
C339        C340   1.412       .  A
C340        C346   1.413       .  A
C340        C341   1.410       .  A
C341        C343   1.412       .  A
C341        C342   1.412       .  A
C342        C350   1.402       .  A
C343        C352   1.403       .  A
C343        C344   1.404       .  A
C344        C345   1.399       .  A
C344        H355   1.083       .  S
C345        C346   1.403       .  A
C345        H356   1.084       .  S
C346        C347   1.403       .  A
C347        C348   1.405       .  A
C347        H357   1.085       .  S
C348        C349   1.405       .  A
C349        H358   1.084       .  S
C350        C351   1.404       .  A
C350        H359   1.084       .  S
C351        C352   1.405       .  A
C352        H360   1.085       .  S
C361        C362   1.400       .  A
C361        C366   1.404       .  A
C361        H377   1.084       .  S
C362        C363   1.405       .  A
C362        H378   1.083       .  S
C363        C373   1.406       .  A
C363        C364   1.411       .  A
C364        C365   1.414       .  A
C364       C1090   1.412       .  A
C365        C366   1.412       .  A
C365       C1087   1.411       .  A
C366        C374   1.406       .  A
C367        C376   1.402       .  A
C367        C368   1.404       .  A
C367       C1085   1.412   1_545  A
C368        C369   1.398       .  A
C368        H379   1.084       .  S
C369        C370   1.403       .  A
C369        H380   1.084       .  S
C370        C371   1.402       .  A
C370       C1084   1.412   1_545  A
C371       C1092   1.406   1_545  A
C371        H381   1.084       .  S
C372        C373   1.409       .  A
C372       C1091   1.407       .  A
C373        H382   1.084       .  S
C374        C375   1.408       .  A
C374        H383   1.085       .  S
C375       C1096   1.408       .  A
C376       C1095   1.406   1_545  A
C376        H384   1.084       .  S
C385        C386   1.402       .  A
C385        C390   1.405       .  A
C385        H401   1.083       .  S
C386        C387   1.405       .  A
C386        H402   1.084       .  S
C387        C397   1.407       .  A
C387        C388   1.413       .  A
C388        C389   1.412       .  A
C388       C1834   1.412       .  A
C389        C390   1.412       .  A
C389       C1831   1.412       .  A
C390        C398   1.407       .  A
C391        C400   1.400       .  A
C391        C392   1.403       .  A
C391       C1829   1.412   1_455  A
C392        C393   1.397       .  A
C392        H403   1.084       .  S
C393        C394   1.403       .  A
C393        H404   1.084       .  S
C394        C395   1.400       .  A
C394       C1828   1.412   1_455  A
C395       C1836   1.405   1_455  A
C395        H405   1.084       .  S
C396        C397   1.407       .  A
C396       C1835   1.403       .  A
C397        H406   1.085       .  S
C398        C399   1.407       .  A
C398        H407   1.084       .  S
C399       C1840   1.403       .  A
C400       C1839   1.405   1_455  A
C400        H408   1.084       .  S
C409        C410   1.398       .  A
C409        C414   1.403       .  A
C409        H425   1.084       .  S
C410        C411   1.403       .  A
C410        H426   1.084       .  S
C411        C421   1.402       .  A
C411       C1852   1.412   1_465  A
C412        C413   1.412       .  A
C412       C1851   1.411   1_545  A
C412       C1138   1.413       .  A
C413       C1135   1.412       .  A
C413       C1854   1.412   1_545  A
C414        C422   1.401       .  A
C414       C1853   1.412   1_465  A
C415        C424   1.413       .  A
C415        C416   1.406       .  A
C415       C1133   1.412       .  A
C416        C417   1.405       .  A
C416        H427   1.083       .  S
C417        C418   1.406       .  A
C417        H428   1.084       .  S
C418        C419   1.413       .  A
C418       C1132   1.413       .  A
C419       C1140   1.411       .  A
C419        H429   1.084       .  S
C420       C1139   1.408       .  A
C420       C1861   1.406   1_545  A
C421       C1860   1.406   1_465  A
C421        H430   1.084       .  S
C422       C1863   1.405   1_465  A
C422        H431   1.085       .  S
C423       C1862   1.405   1_545  A
C423       C1144   1.409       .  A
C424       C1143   1.412       .  A
C424        H432   1.084       .  S
C433        C434   1.400       .  A
C433        C438   1.403       .  A
C433        H449   1.083       .  S
C434        C435   1.404       .  A
C434        H450   1.083       .  S
C435        C445   1.404       .  A
C435        C436   1.412       .  A
C436        C442   1.411       .  A
C436        C437   1.411       .  A
C437        C439   1.411       .  A
C437        C438   1.412       .  A
C438        C446   1.404       .  A
C439        C448   1.399       .  A
C439        C440   1.402       .  A
C440        C441   1.397       .  A
C440        H451   1.084       .  S
C441        C442   1.403       .  A
C441        H452   1.083       .  S
C442        C443   1.400       .  A
C443        C444   1.405       .  A
C443        H453   1.085       .  S
C444        C445   1.407       .  A
C445        H454   1.084       .  S
C446        C447   1.406       .  A
C446        H455   1.085       .  S
C447        C448   1.405       .  A
C448        H456   1.084       .  S
C457        C458   1.405       .  A
C457        C462   1.406       .  A
C457        H473   1.084       .  S
C458        C459   1.406       .  A
C458        H474   1.083       .  S
C459        C469   1.414       .  A
C459       C1180   1.413       .  A
C460        C466   1.413       .  A
C460        C461   1.411       .  A
C460       C1179   1.411   1_545  A
C461        C463   1.411       .  A
C461       C1182   1.412   1_545  A
C462        C470   1.411       .  A
C462       C1181   1.411       .  A
C463        C472   1.403       .  A
C463        C464   1.404       .  A
C464        C465   1.400       .  A
C464        H475   1.083       .  S
C465        C466   1.403       .  A
C465        H476   1.083       .  S
C466        C467   1.405       .  A
C467       C1188   1.405       .  A
C467        H477   1.085       .  S
C468        C469   1.410       .  A
C468       C1187   1.405       .  A
C469        H478   1.084       .  S
C470       C1191   1.412       .  A
C470        H479   1.084       .  S
C471        C472   1.406       .  A
C471       C1190   1.404   1_545  A
C472        H480   1.084       .  S
C481        C482   1.401       .  A
C481        C486   1.404       .  A
C481        H497   1.083       .  S
C482        C483   1.404       .  A
C482        H498   1.083       .  S
C483        C493   1.407       .  A
C483        C484   1.411       .  A
C484        C485   1.413       .  A
C484       C1930   1.411       .  A
C485        C486   1.412       .  A
C485       C1927   1.411       .  A
C486        C494   1.407       .  A
C487        C496   1.400       .  A
C487        C488   1.403       .  A
C487       C1925   1.411   1_655  A
C488        C489   1.397       .  A
C488        H499   1.083       .  S
C489        C490   1.402       .  A
C489        H500   1.084       .  S
C490        C491   1.400       .  A
C490       C1924   1.411   1_655  A
C491       C1932   1.405   1_655  A
C491        H501   1.085       .  S
C492        C493   1.408       .  A
C492       C1931   1.406       .  A
C493        H502   1.084       .  S
C494        C495   1.408       .  A
C494        H503   1.084       .  S
C495       C1936   1.406       .  A
C496       C1935   1.405   1_655  A
C496        H504   1.085       .  S
C505        C506   1.397       .  A
C505        C510   1.403       .  A
C505        H521   1.084       .  S
C506        C507   1.403   1_655  A
C506        H522   1.083       .  S
C507        C517   1.400       .  A
C507       C1948   1.410       .  A
C508        C509   1.416       .  A
C508       C1947   1.410       .  A
C508       C1234   1.413       .  A
C509       C1231   1.412       .  A
C509       C1950   1.411       .  A
C510        C518   1.402       .  A
C510       C1949   1.412   1_655  A
C511        C520   1.405       .  A
C511        C512   1.403       .  A
C511       C1229   1.413   1_565  A
C512        C513   1.399       .  A
C512        H523   1.082       .  S
C513        C514   1.403       .  A
C513        H524   1.084       .  S
C514        C515   1.402       .  A
C514       C1228   1.411   1_565  A
C515        C516   1.406   1_565  A
C515        H525   1.085       .  S
C516       C2677   1.405       .  A
C517       C2676   1.407       .  A
C517        H526   1.084   1_455  S
C518       C2679   1.406   1_655  A
C518        H527   1.085       .  S
C519        C520   1.405   1_545  A
C519       C2678   1.406       .  A
C520        H528   1.084       .  S
C529        C530   1.399       .  A
C529        C534   1.403       .  A
C529        H545   1.083       .  S
C530        C531   1.403       .  A
C530        H546   1.084       .  S
C531        C541   1.402       .  A
C531        C532   1.411       .  A
C532        C538   1.412       .  A
C532        C533   1.411       .  A
C533        C535   1.411       .  A
C533        C534   1.412       .  A
C534        C542   1.403       .  A
C535        C544   1.401       .  A
C535        C536   1.403       .  A
C536        C537   1.398       .  A
C536        H547   1.084       .  S
C537        C538   1.403       .  A
C537        H548   1.083       .  S
C538        C539   1.402       .  A
C539        C540   1.405       .  A
C539        H549   1.084       .  S
C540        C541   1.406       .  A
C541        H550   1.085       .  S
C542        C543   1.406       .  A
C542        H551   1.084       .  S
C543        C544   1.406       .  A
C544        H552   1.085       .  S
C553        C554   1.402       .  A
C553        C558   1.405       .  A
C553        H569   1.083       .  S
C554        C555   1.405       .  A
C554        H570   1.084       .  S
C555        C565   1.409       .  A
C555       C1276   1.411       .  A
C556        C562   1.412       .  A
C556        C557   1.411       .  A
C556       C1275   1.412   1_545  A
C557        C559   1.412       .  A
C557       C1278   1.411   1_545  A
C558        C566   1.410       .  A
C558       C1277   1.413       .  A
C559        C568   1.403       .  A
C559        C560   1.403       .  A
C560        C561   1.398       .  A
C560        H571   1.083       .  S
C561        C562   1.403       .  A
C561        H572   1.083       .  S
C562        C563   1.402       .  A
C563       C1284   1.405       .  A
C563        H573   1.084       .  S
C564        C565   1.410       .  A
C564       C1283   1.406       .  A
C565        H574   1.084       .  S
C566        C567   1.409       .  A
C566        H575   1.084       .  S
C567       C1288   1.408       .  A
C568       C1287   1.404       .  A
C568        H576   1.085       .  S
C577        C578   1.399       .  A
C577        C582   1.403       .  A
C577        H593   1.083       .  S
C578        C579   1.403       .  A
C578        H594   1.083       .  S
C579        C589   1.403       .  A
C579       C2020   1.411       .  A
C580        C586   1.412       .  A
C580       C2019   1.411       .  A
C580       C2021   1.412       .  A
C581        C582   1.412       .  A
C581       C2020   1.411       .  A
C581       C2023   1.411   1_455  A
C582        C590   1.404       .  A
C583        C592   1.402       .  A
C583        C584   1.404       .  A
C583       C2021   1.411       .  A
C584        C585   1.399       .  A
C584        H595   1.084       .  S
C585        C586   1.403       .  A
C585        H596   1.083       .  S
C586        C587   1.403       .  A
C587        C588   1.406       .  A
C587        H597   1.084       .  S
C588       C2029   1.406       .  A
C589       C2028   1.405       .  A
C589        H598   1.085       .  S
C590       C2031   1.406       .  A
C590        H599   1.084       .  S
C591        C592   1.407       .  A
C591       C2030   1.406       .  A
C592        H600   1.085       .  S
C601        C602   1.404       .  A
C601        C606   1.405       .  A
C601        H617   1.083       .  S
C602        C603   1.405       .  A
C602        H618   1.084       .  S
C603        C613   1.410       .  A
C603       C2044   1.412       .  A
C604        C605   1.416       .  A
C604       C2043   1.412       .  A
C604       C1330   1.411       .  A
C605       C1327   1.410       .  A
C605       C2046   1.413       .  A
C606        C614   1.412       .  A
C606       C2045   1.413       .  A
C607        C616   1.406       .  A
C607        C608   1.403       .  A
C607       C1325   1.413       .  A
C608        C609   1.400       .  A
C608        H619   1.083       .  S
C609        C610   1.404       .  A
C609        H620   1.083       .  S
C610        C611   1.404       .  A
C610       C1324   1.411       .  A
C611       C1332   1.408       .  A
C611        H621   1.085       .  S
C612       C1331   1.406       .  A
C612       C2053   1.411       .  A
C613       C2052   1.411       .  A
C613        H622   1.084       .  S
C614       C2055   1.410       .  A
C614        H623   1.084       .  S
C615       C2054   1.411       .  A
C615       C1336   1.407       .  A
C616       C1335   1.406       .  A
C616        H624   1.084       .  S
C625        C626   1.401       .  A
C625        C630   1.404       .  A
C625        H641   1.084       .  S
C626        C627   1.405       .  A
C626        H642   1.084       .  S
C627        C637   1.406       .  A
C627        C628   1.412       .  A
C628        C634   1.411       .  A
C628        C629   1.411       .  A
C629        C631   1.411       .  A
C629        C630   1.412       .  A
C630        C638   1.406       .  A
C631        C640   1.398       .  A
C631        C632   1.402       .  A
C632        C633   1.396       .  A
C632        H643   1.084       .  S
C633        C634   1.402       .  A
C633        H644   1.084       .  S
C634        C635   1.399       .  A
C635        C636   1.405       .  A
C635        H645   1.085       .  S
C636        C637   1.408       .  A
C637        H646   1.084       .  S
C638        C639   1.408       .  A
C638        H647   1.084       .  S
C639        C640   1.405       .  A
C640        H648   1.085       .  S
C649        C650   1.400       .  A
C649        C654   1.404       .  A
C649        H665   1.084       .  S
C650        C651   1.404       .  A
C650        H666   1.083       .  S
C651        C661   1.405       .  A
C651       C1372   1.411       .  A
C652        C658   1.411   1_565  A
C652        C653   1.411       .  A
C652       C1371   1.413       .  A
C653        C655   1.412   1_565  A
C653       C1374   1.412       .  A
C654        C662   1.406       .  A
C654       C1373   1.412       .  A
C655        C664   1.399       .  A
C655        C656   1.402       .  A
C656        C657   1.395       .  A
C656        H667   1.084       .  S
C657        C658   1.402       .  A
C657        H668   1.084       .  S
C658        C659   1.397       .  A
C659       C1380   1.404   1_545  A
C659        H669   1.085       .  S
C660        C661   1.409       .  A
C660       C1379   1.408       .  A
C661        H670   1.084       .  S
C662        C663   1.408       .  A
C662        H671   1.084       .  S
C663       C1384   1.408       .  A
C664       C1383   1.404   1_545  A
C664        H672   1.084       .  S
C673        C674   1.397       .  A
C673        C678   1.403       .  A
C673        H689   1.084       .  S
C674        C675   1.403       .  A
C674        H690   1.084       .  S
C675        C685   1.401       .  A
C675       C2116   1.412   1_455  A
C676        C682   1.411       .  A
C676       C2115   1.412       .  A
C676       C2117   1.412       .  A
C677        C678   1.411   1_655  A
C677       C2116   1.411       .  A
C677       C2119   1.413       .  A
C678        C686   1.399       .  A
C679        C688   1.407       .  A
C679        C680   1.404       .  A
C679       C2117   1.412       .  A
C680        C681   1.401       .  A
C680        H691   1.083       .  S
C681        C682   1.405       .  A
C681        H692   1.084       .  S
C682        C683   1.406       .  A
C683       C2124   1.409       .  A
C683        H693   1.084       .  S
C684        C685   1.405   1_655  A
C684       C2123   1.408       .  A
C685        H694   1.084       .  S
C686       C2127   1.406   1_455  A
C686        H695   1.085       .  S
C687        C688   1.408       .  A
C687       C2126   1.406       .  A
C688        H696   1.084       .  S
C697        C698   1.403       .  A
C697        C702   1.405       .  A
C697        H713   1.083       .  S
C698        C699   1.405       .  A
C698        H714   1.083       .  S
C699        C709   1.411       .  A
C699       C1420   1.412       .  A
C700        C701   1.412       .  A
C700       C1419   1.412       .  A
C700       C2146   1.411       .  A
C701       C2143   1.411   1_545  A
C701       C1422   1.412       .  A
C702        C710   1.411       .  A
C702       C1421   1.412       .  A
C703        C712   1.401       .  A
C703        C704   1.403       .  A
C703       C2141   1.411   1_465  A
C704        C705   1.398       .  A
C704        H715   1.084       .  S
C705        C706   1.403       .  A
C705        H716   1.084       .  S
C706        C707   1.401       .  A
C706       C2140   1.412   1_465  A
C707       C2148   1.406   1_465  A
C707        H717   1.084       .  S
C708       C2147   1.406       .  A
C708       C1429   1.408       .  A
C709       C1428   1.410       .  A
C709        H718   1.084       .  S
C710       C1431   1.410       .  A
C710        H719   1.084       .  S
C711       C1430   1.408       .  A
C711       C2152   1.406   1_545  A
C712       C2151   1.406   1_465  A
C712        H720   1.084       .  S
O721        C731   1.279   1_465  A
O722       C2172   1.281   1_455  A
O722       Ni729   1.917       .  S
O723        C733   1.284   1_455  A
O723       Ni729   1.924       .  S
O724        C734   1.280   1_455  A
O725       C2174   1.279       .  A
O726       C2173   1.278       .  A
O726       Ni730   1.908       .  S
O728       C1451   1.285       .  A
O728       Ni730   1.934       .  S
Ni729     Ni2170   2.391   1_455  S
Ni730     Ni2169   2.390       .  S
C731       O1448   1.283       .  A
C731       C2227   1.463       .  S
C732       O2162   1.282       .  A
C732       C1431   1.490       .  S
C733       O2166   1.278       .  A
C733        C748   1.466       .  S
C734       O2165   1.279       .  A
C734        C747   1.457       .  S
O735        C745   1.282   1_455  A
O735       Ni743   1.926       .  S
O736        C746   1.284   1_455  A
O736       Ni743   1.926       .  S
O737        C747   1.278   1_455  A
O737       Ni743   1.903       .  S
O738        C748   1.278   1_455  A
O738       Ni743   1.910       .  S
O739       C2188   1.283       .  A
O739       Ni744   1.922       .  S
O740       C2187   1.281       .  A
O740       Ni744   1.914       .  S
O741       C2186   1.282       .  A
O741       Ni744   1.924       .  S
O742       C2185   1.280       .  A
O742       Ni744   1.920       .  S
Ni743     Ni2184   2.391   1_455  S
Ni744     Ni2183   2.391       .  S
C745       O2182   1.280       .  A
C745       C2241   1.466       .  S
C746       O2181   1.282       .  A
C746       C1404   1.484       .  S
C747       O2180   1.281       .  A
C748       O2179   1.283       .  A
O749        C759   1.282       .  A
O749       Ni757   1.924       .  S
O751        C761   1.282       .  A
O752        C762   1.280       .  A
O752       Ni757   1.910       .  S
O753        C762   1.279       .  A
O753       Ni758   1.907       .  S
O754        C761   1.279       .  A
O755        C760   1.282       .  A
O755       Ni758   1.913       .  S
Ni757      Ni758   2.393       .  S
C759        C815   1.464   1_565  S
C760       C1380   1.477       .  S
C761        C775   1.466       .  S
C762        C776   1.457       .  S
O763        C773   1.279       .  A
O763       Ni771   1.917       .  S
O764        C774   1.281       .  A
O764       Ni771   1.917       .  S
O765        C775   1.283       .  A
O765       Ni771   1.923       .  S
O766        C776   1.281       .  A
O766       Ni771   1.914       .  S
O767        C776   1.278       .  A
O767       Ni772   1.904       .  S
O768        C775   1.278       .  A
O768       Ni772   1.908       .  S
O769        C774   1.285       .  A
O769       Ni772   1.936       .  S
O770        C773   1.285       .  A
O770       Ni772   1.935       .  S
Ni771      Ni772   2.391       .  S
C773        C829   1.471       .  S
C774       C1356   1.487       .  S
O777       C2227   1.282   1_565  A
O777      Ni2225   1.926   1_655  S
O778        C788   1.284   1_565  A
O778       Ni785   1.926       .  S
O779        C789   1.279   1_565  A
O779       Ni785   1.905       .  S
O780        C790   1.279   1_565  A
O780      Ni2225   1.908       .  S
O781      Ni2226   1.911       .  S
O782       Ni786   1.908       .  S
O783       C1508   1.283       .  A
O783      Ni2226   1.919       .  S
O784       Ni786   1.923       .  S
Ni785      O2217   1.927       .  S
Ni785      O2220   1.907       .  S
Ni786      O2221   1.915       .  S
Ni786      O2223   1.921       .  S
C787       O2217   1.283   1_545  A
C787       C2171   1.464       .  S
C788       O1503   1.281       .  A
C788       C1332   1.478       .  S
C789        C818   1.455       .  S
C790        C817   1.459       .  S
O791       C2241   1.280       .  A
O791      Ni2239   1.921       .  S
O792        C802   1.283       .  A
O792       Ni799   1.920       .  S
O793        C803   1.279       .  A
O793       Ni799   1.907       .  S
O794        C804   1.279       .  A
O794      Ni2239   1.908   1_455  S
O795        C804   1.280       .  A
O795      Ni2240   1.912   1_455  S
O796        C803   1.279       .  A
O796       Ni800   1.908       .  S
O797       C2242   1.283       .  A
O797      Ni2240   1.929       .  S
O798        C801   1.282       .  A
O798       Ni800   1.924       .  S
Ni799      O2231   1.922       .  S
Ni799      O2234   1.908       .  S
Ni799      Ni800   2.392       .  S
Ni800      O2235   1.914       .  S
Ni800      O2237   1.929       .  S
C801       O2231   1.280       .  A
C801       C2185   1.466       .  S
C802       O2237   1.283       .  A
C802       C1311   1.485       .  S
C803        C831   1.455       .  S
C804        C832   1.458       .  S
O805        C815   1.280   1_565  A
O805       Ni813   1.920       .  S
O806        C816   1.281   1_565  A
O806       Ni813   1.918       .  S
O807        C817   1.281   1_565  A
O807       Ni813   1.914       .  S
O808        C818   1.279   1_565  A
O808       Ni813   1.906       .  S
O809       Ni814   1.909       .  S
O810       Ni814   1.908       .  S
O811       Ni814   1.919       .  S
O812       Ni814   1.923       .  S
C816       C1284   1.475       .  S
O819        C829   1.285       .  A
O819       Ni827   1.933       .  S
O820        C830   1.284       .  A
O820       Ni827   1.935       .  S
O821        C831   1.279       .  A
O821       Ni827   1.908       .  S
O822        C832   1.279       .  A
O822       Ni827   1.908       .  S
O823        C832   1.280       .  A
O823       Ni828   1.912       .  S
O824        C831   1.279       .  A
O824       Ni828   1.906       .  S
O825        C830   1.282       .  A
O825       Ni828   1.914       .  S
O826        C829   1.279       .  A
O826       Ni828   1.920       .  S
Ni827      Ni828   2.391       .  S
C830       C1260   1.485       .  S
O833       C2283   1.280   1_565  A
O833      Ni2281   1.909       .  S
O834       Ni841   1.912       .  S
O835        C845   1.280   1_565  A
O835       Ni841   1.913       .  S
O836        C846   1.278   1_565  A
O836      Ni2281   1.905   1_455  S
O837      Ni2282   1.911       .  S
O838       Ni842   1.906       .  S
O839       C2284   1.281       .  A
O839      Ni2282   1.912       .  S
O840       Ni842   1.913       .  S
Ni841      O2273   1.911       .  S
Ni841      O2276   1.906       .  S
Ni842      O2277   1.911       .  S
Ni842      O2279   1.914       .  S
C843       O2273   1.280   1_545  A
C843       C1335   1.475       .  S
C844       O2279   1.282       .  A
C844       C1236   1.488       .  S
C845        C874   1.457       .  S
C846        C873   1.457       .  S
O847        C857   1.280       .  A
O847      Ni2295   1.912   1_455  S
O848        C858   1.278       .  A
O848       Ni855   1.905       .  S
O849       C2299   1.283       .  A
O849      Ni2295   1.934       .  S
O850        C860   1.284       .  A
O850       Ni855   1.935       .  S
O851       C2300   1.282       .  A
O851      Ni2296   1.913       .  S
O852        C859   1.281       .  A
O852       Ni856   1.914       .  S
O853        C858   1.280       .  A
O853       Ni856   1.913       .  S
O854        C857   1.278       .  A
O854      Ni2296   1.906   1_455  S
Ni855      O2287   1.910       .  S
Ni855      O2289   1.935       .  S
Ni855      Ni856   2.390       .  S
Ni856      O2291   1.912       .  S
Ni856      O2294   1.907       .  S
C857        C887   1.457       .  S
C858        C888   1.457       .  S
C859       O2289   1.284       .  A
C859       C1212   1.484       .  S
C860       O2291   1.281       .  A
C860       C1308   1.485       .  S
O861       Ni869   1.908       .  S
O862       Ni869   1.909       .  S
O863       Ni869   1.908       .  S
O864       Ni869   1.910       .  S
O865        C874   1.277   1_565  A
O865       Ni870   1.905       .  S
O866        C873   1.280   1_565  A
O866       Ni870   1.912       .  S
O867        C872   1.280   1_565  A
O867       Ni870   1.913       .  S
O868        C871   1.280   1_565  A
O868       Ni870   1.911       .  S
C871       C1188   1.472       .  S
C872       C1287   1.474       .  S
O875        C885   1.283       .  A
O875       Ni883   1.932       .  S
O876        C886   1.283       .  A
O876       Ni883   1.933       .  S
O877        C887   1.278       .  A
O877       Ni883   1.907       .  S
O878        C888   1.280       .  A
O878       Ni883   1.912       .  S
O879        C888   1.278       .  A
O879       Ni884   1.906       .  S
O880        C887   1.280       .  A
O880       Ni884   1.910       .  S
O881        C886   1.282       .  A
O881       Ni884   1.916       .  S
O882        C885   1.282       .  A
O882       Ni884   1.914       .  S
Ni883      Ni884   2.390       .  S
C885       C1167   1.483       .  S
C886       C1263   1.485       .  S
O889        C899   1.285       .  A
O889       Ni897   1.937       .  S
O891        C901   1.280       .  A
O892        C902   1.279       .  A
O892       Ni897   1.908       .  S
O893       C2342   1.279   1_455  A
O893       Ni898   1.908       .  S
O894       C2341   1.280   1_455  A
O895       C2340   1.283   1_455  A
O895       Ni898   1.922       .  S
O896       C1619   1.282   1_455  A
Ni897     Ni2338   2.389       .  S
Ni898     Ni2337   2.389   1_455  S
C899       O1616   1.282       .  A
C899       C1428   1.491   1_556  S
C900       O2335   1.283       .  A
C900       C1140   1.490       .  S
C901       O2334   1.279       .  A
C901        C915   1.460       .  S
C902       O2333   1.279       .  A
C902        C916   1.458       .  S
O903        C913   1.285       .  A
O903       Ni911   1.935       .  S
O904        C914   1.285       .  A
O904       Ni911   1.936       .  S
O905        C915   1.279       .  A
O905       Ni911   1.909       .  S
O906        C916   1.278       .  A
O906       Ni911   1.905       .  S
O907       C2356   1.280   1_455  A
O907       Ni912   1.911       .  S
O908       C2355   1.280   1_455  A
O908       Ni912   1.911       .  S
O909       C2354   1.282   1_455  A
O909       Ni912   1.917       .  S
O910       C2353   1.281   1_455  A
O910       Ni912   1.920       .  S
Ni911     Ni2352   2.389       .  S
Ni912     Ni2351   2.390   1_455  S
C913       O2350   1.281       .  A
C913       C1116   1.484       .  S
C914       O2349   1.282       .  A
C914       C1407   1.489   1_556  S
C915       O2348   1.280       .  A
C916       O2347   1.281       .  A
O918        C928   1.281       .  A
O918       Ni925   1.920       .  S
O919        C929   1.279       .  A
O919       Ni925   1.907       .  S
O920        C930   1.281       .  A
O921        C930   1.279       .  A
O922        C929   1.279       .  A
O922       Ni926   1.911       .  S
O924        C927   1.282       .  A
O924       Ni926   1.917       .  S
Ni925      Ni926   2.391       .  S
C927       C1095   1.477       .  S
C928       C1383   1.477   1_556  S
C929        C944   1.456       .  S
C930        C943   1.460       .  S
O931        C941   1.282       .  A
O931       Ni939   1.921       .  S
O932        C942   1.282       .  A
O932       Ni939   1.921       .  S
O933        C943   1.281       .  A
O933       Ni939   1.914       .  S
O934        C944   1.280       .  A
O934       Ni939   1.913       .  S
O935        C944   1.278       .  A
O935       Ni940   1.904       .  S
O936        C943   1.279       .  A
O936       Ni940   1.908       .  S
O937        C942   1.284       .  A
O937       Ni940   1.930       .  S
O938        C941   1.284       .  A
O938       Ni940   1.930       .  S
Ni939      Ni940   2.390       .  S
C941       C1359   1.487   1_556  S
C942       C1071   1.484       .  S
O946        C956   1.284       .  A
O946       Ni953   1.934       .  S
O947        C957   1.280       .  A
O947       Ni953   1.912       .  S
O948        C958   1.280       .  A
O949       C2398   1.279   1_455  A
O950       C2397   1.281   1_455  A
O950       Ni954   1.916       .  S
O951       C1676   1.282   1_455  A
O952       C2395   1.281       .  A
O952       Ni954   1.923       .  S
Ni953     Ni2394   2.390       .  S
Ni954     Ni2393   2.390   1_455  S
C955       O2392   1.281       .  A
C955       C1011   1.475       .  S
C956       O1671   1.284       .  A
C956       C1143   1.490       .  S
C957       O2390   1.281       .  A
C957        C972   1.465       .  S
C958       O2389   1.279       .  A
C958        C971   1.458       .  S
O959        C969   1.282       .  A
O959       Ni967   1.925       .  S
O960        C970   1.284       .  A
O960       Ni967   1.931       .  S
O961        C971   1.280       .  A
O961       Ni967   1.913       .  S
O962        C972   1.280       .  A
O962       Ni967   1.913       .  S
O963       C2412   1.281   1_455  A
O963       Ni968   1.915       .  S
O964       C2411   1.279   1_455  A
O964       Ni968   1.907       .  S
O965       C2410   1.282   1_455  A
O965       Ni968   1.923       .  S
O966       C2409   1.281   1_455  A
O966       Ni968   1.921       .  S
Ni967     Ni2408   2.391       .  S
Ni968     Ni2407   2.391   1_455  S
C969       O2406   1.281       .  A
C969       C1025   1.468       .  S
C970       O2405   1.283       .  A
C970       C1119   1.485       .  S
C971       O2404   1.279       .  A
C972       O2403   1.281       .  A
O974       Ni981   1.926       .  S
O975        C985   1.279       .  A
O975       Ni981   1.909       .  S
O976        C986   1.279       .  A
O977        C986   1.279       .  A
O978        C985   1.282       .  A
O978       Ni982   1.921       .  S
O979        C984   1.281       .  A
O980        C983   1.280       .  A
O980       Ni982   1.919       .  S
Ni981      Ni982   2.391       .  S
C983       C1039   1.465       .  S
C984       C1092   1.476       .  S
C985       C1000   1.465       .  S
C986        C999   1.455       .  S
O987        C997   1.279       .  A
O987       Ni995   1.916       .  S
O988        C998   1.281       .  A
O988       Ni995   1.917       .  S
O989        C999   1.280       .  A
O989       Ni995   1.912       .  S
O990       C1000   1.281       .  A
O990       Ni995   1.914       .  S
O991       C1000   1.280       .  A
O991       Ni996   1.917       .  S
O992        C999   1.278       .  A
O992       Ni996   1.903       .  S
O993        C998   1.284       .  A
O993       Ni996   1.931       .  S
O994        C997   1.283       .  A
O994       Ni996   1.929       .  S
Ni995      Ni996   2.392       .  S
C997       C1053   1.466       .  S
C998       C1068   1.483       .  S
O1001      C1011   1.280       .  A
O1001     Ni1009   1.926       .  S
O1002      C1012   1.283       .  A
O1002     Ni1009   1.921       .  S
O1003      C1013   1.280       .  A
O1003     Ni1009   1.909       .  S
O1004      C1014   1.281       .  A
O1004     Ni2449   1.912       .  S
O1005     Ni2450   1.909       .  S
O1006     Ni1010   1.909       .  S
O1007     Ni1010   1.923       .  S
O1008     Ni1010   1.925       .  S
Ni1009     O2444   1.915       .  S
Ni1010     O2445   1.908       .  S
C1012      C1239   1.488       .  S
C1013      C1042   1.455       .  S
C1014      C1041   1.458       .  S
O1015      C1025   1.281       .  A
O1015     Ni1023   1.925       .  S
O1016      C1026   1.283       .  A
O1016     Ni1023   1.922       .  S
O1017      C1027   1.279       .  A
O1017     Ni2463   1.907   1_455  S
O1018      C1028   1.279       .  A
O1018     Ni1023   1.907       .  S
O1019      C1028   1.279       .  A
O1019     Ni1024   1.907       .  S
O1020      C1027   1.281       .  A
O1020     Ni2464   1.913   1_455  S
O1021      C1026   1.282       .  A
O1021     Ni1024   1.925       .  S
O1022      C1025   1.282       .  A
O1022     Ni1024   1.923       .  S
Ni1023     O2457   1.908       .  S
Ni1023    Ni1024   2.392       .  S
Ni1024     O2460   1.914       .  S
C1026      C1215   1.483       .  S
C1027      C1055   1.459       .  S
C1028      C1056   1.455       .  S
O1029      C1039   1.281       .  A
O1029     Ni1037   1.924       .  S
O1030      C1040   1.284       .  A
O1030     Ni1037   1.922       .  S
O1031      C1041   1.279       .  A
O1031     Ni1037   1.907       .  S
O1032      C1042   1.279       .  A
O1032     Ni1037   1.908       .  S
O1033     Ni1038   1.906       .  S
O1034     Ni1038   1.909       .  S
O1035     Ni1038   1.920       .  S
O1036     Ni1038   1.921       .  S
C1040      C1191   1.483       .  S
O1043      C1053   1.283       .  A
O1043     Ni1051   1.927       .  S
O1044      C1054   1.283       .  A
O1044     Ni1051   1.930       .  S
O1045      C1055   1.279       .  A
O1045     Ni1051   1.908       .  S
O1046      C1056   1.279       .  A
O1046     Ni1051   1.908       .  S
O1047      C1056   1.279       .  A
O1047     Ni1052   1.907       .  S
O1048      C1055   1.281       .  A
O1048     Ni1052   1.912       .  S
O1049      C1054   1.282       .  A
O1049     Ni1052   1.915       .  S
O1050      C1053   1.279       .  A
O1050     Ni1052   1.919       .  S
Ni1051    Ni1052   2.392       .  S
C1054      C1164   1.483       .  S
C1057      C1058   1.399       .  A
C1057      C1062   1.404       .  A
C1057      H1073   1.084       .  S
C1058      C1059   1.404       .  A
C1058      H1074   1.083       .  S
C1059      C1069   1.404       .  A
C1059      C1060   1.411       .  A
C1060      C1066   1.412       .  A
C1060      C1061   1.415       .  A
C1061      C1063   1.412       .  A
C1061      C1062   1.412       .  A
C1062      C1070   1.405       .  A
C1063      C1072   1.408       .  A
C1063      C1064   1.405       .  A
C1064      C1065   1.401       .  A
C1064      H1075   1.083       .  S
C1065      C1066   1.404       .  A
C1065      H1076   1.084       .  S
C1066      C1067   1.408       .  A
C1067      C1068   1.408       .  A
C1067      H1077   1.085       .  S
C1068      C1069   1.407       .  A
C1069      H1078   1.084       .  S
C1070      C1071   1.407       .  A
C1070      H1079   1.084       .  S
C1071      C1072   1.408       .  A
C1072      H1080   1.084       .  S
C1081      C1082   1.398       .  A
C1081      C1086   1.403       .  A
C1081      H1097   1.084       .  S
C1082      C1083   1.404       .  A
C1082      H1098   1.083       .  S
C1083      C1093   1.402       .  A
C1083      C1084   1.412       .  A
C1084      C1085   1.411       .  A
C1085      C1086   1.412       .  A
C1086      C1094   1.402       .  A
C1087      C1096   1.404       .  A
C1087      C1088   1.404       .  A
C1088      C1089   1.399       .  A
C1088      H1099   1.084       .  S
C1089      C1090   1.404       .  A
C1089      H1100   1.084       .  S
C1090      C1091   1.405       .  A
C1091      H1101   1.084       .  S
C1092      C1093   1.407       .  A
C1093      H1102   1.084       .  S
C1094      C1095   1.406       .  A
C1094      H1103   1.085       .  S
C1096      H1104   1.084       .  S
C1105      C1106   1.402       .  A
C1105      C1110   1.404       .  A
C1105      H1121   1.082       .  S
C1106      C1107   1.404       .  A
C1106      H1122   1.084       .  S
C1107      C1117   1.408       .  A
C1107      C1108   1.412       .  A
C1108      C2554   1.412       .  A
C1108      C1109   1.416       .  A
C1109      C2551   1.411       .  A
C1109      C1110   1.413       .  A
C1110      C1118   1.409       .  A
C1111      C2549   1.411   1_455  A
C1111      C1120   1.407       .  A
C1111      C1112   1.405       .  A
C1112      C1113   1.401       .  A
C1112      H1123   1.083       .  S
C1113      C1114   1.405       .  A
C1113      H1124   1.084       .  S
C1114      C2548   1.412   1_455  A
C1114      C1115   1.407       .  A
C1115      C2556   1.409   1_455  A
C1115      H1125   1.084       .  S
C1116      C2555   1.407       .  A
C1116      C1117   1.407       .  A
C1117      H1126   1.085       .  S
C1118      C1119   1.408       .  A
C1118      H1127   1.084       .  S
C1119      C2560   1.408       .  A
C1120      C2559   1.409   1_455  A
C1120      H1128   1.084       .  S
C1129      C1130   1.397       .  A
C1129      C1134   1.403       .  A
C1129      H1145   1.084       .  S
C1130      C1131   1.403       .  A
C1130      H1146   1.084       .  S
C1131      C1141   1.402       .  A
C1131      C2572   1.411   1_455  A
C1132      C2571   1.411       .  A
C1132      C1133   1.417       .  A
C1133      C2574   1.412       .  A
C1134      C2573   1.411   1_455  A
C1134      C1142   1.402       .  A
C1135      C1144   1.408       .  A
C1135      C1136   1.405       .  A
C1136      C1137   1.402       .  A
C1136      H1147   1.083       .  S
C1137      C1138   1.405       .  A
C1137      H1148   1.084       .  S
C1138      C1139   1.408       .  A
C1139      H1149   1.084       .  S
C1140      C2581   1.407       .  A
C1141      C2580   1.406   1_455  A
C1141      H1150   1.084       .  S
C1142      C2583   1.407   1_455  A
C1142      H1151   1.084       .  S
C1143      C2582   1.407       .  A
C1144      H1152   1.084       .  S
C1153      C1154   1.396       .  A
C1153      C1158   1.402       .  A
C1153      H1169   1.084       .  S
C1154      C1155   1.402       .  A
C1154      H1170   1.084       .  S
C1155      C1165   1.399       .  A
C1155      C1156   1.411       .  A
C1156      C1162   1.412       .  A
C1156      C1157   1.414       .  A
C1157      C1159   1.412       .  A
C1157      C1158   1.411       .  A
C1158      C1166   1.399       .  A
C1159      C1168   1.411       .  A
C1159      C1160   1.405       .  A
C1160      C1161   1.403       .  A
C1160      H1171   1.083       .  S
C1161      C1162   1.405       .  A
C1161      H1172   1.084       .  S
C1162      C1163   1.411       .  A
C1163      C1164   1.410       .  A
C1163      H1173   1.084       .  S
C1164      C1165   1.405       .  A
C1165      H1174   1.084       .  S
C1166      C1167   1.405       .  A
C1166      H1175   1.085       .  S
C1167      C1168   1.410       .  A
C1168      H1176   1.084       .  S
C1177      C1178   1.397       .  A
C1177      C1182   1.402       .  A
C1177      H1193   1.082       .  S
C1178      C1179   1.402       .  A
C1178      H1194   1.083       .  S
C1179      C1189   1.399       .  A
C1180      C1186   1.410       .  A
C1180      C1181   1.414       .  A
C1181      C1183   1.412       .  A
C1182      C1190   1.401       .  A
C1183      C1192   1.399       .  A
C1183      C1184   1.401       .  A
C1184      C1185   1.395       .  A
C1184      H1195   1.084       .  S
C1185      C1186   1.402       .  A
C1185      H1196   1.084       .  S
C1186      C1187   1.396       .  A
C1187      H1197   1.085       .  S
C1188      C1189   1.404   1_545  A
C1189      H1198   1.085       .  S
C1190      H1199   1.085       .  S
C1191      C1192   1.403       .  A
C1192      H1200   1.085       .  S
C1201      C1202   1.397       .  A
C1201      C1206   1.402       .  A
C1201      H1217   1.084       .  S
C1202      C1203   1.403       .  A
C1202      H1218   1.084       .  S
C1203      C1213   1.401       .  A
C1203      C1204   1.410       .  A
C1204      C2650   1.413       .  A
C1204      C1205   1.415       .  A
C1205      C2647   1.411       .  A
C1205      C1206   1.412       .  A
C1206      C1214   1.402       .  A
C1207      C2645   1.412       .  A
C1207      C1216   1.409       .  A
C1207      C1208   1.405       .  A
C1208      C1209   1.403       .  A
C1208      H1219   1.083       .  S
C1209      C1210   1.405       .  A
C1209      H1220   1.083       .  S
C1210      C2644   1.413       .  A
C1210      C1211   1.411       .  A
C1211      C2652   1.409       .  A
C1211      H1221   1.084       .  S
C1212      C2651   1.409       .  A
C1212      C1213   1.407       .  A
C1213      H1222   1.084       .  S
C1214      C1215   1.405       .  A
C1214      H1223   1.084       .  S
C1215      C2656   1.410       .  A
C1216      C2655   1.410       .  A
C1216      H1224   1.084       .  S
C1225      C1226   1.398       .  A
C1225      C1230   1.403       .  A
C1225      H1241   1.083       .  S
C1226      C1227   1.403       .  A
C1226      H1242   1.082       .  S
C1227      C1237   1.403       .  A
C1227      C2668   1.413       .  A
C1228      C2667   1.413       .  A
C1228      C1229   1.412       .  A
C1229      C2670   1.411       .  A
C1230      C2669   1.411       .  A
C1230      C1238   1.401       .  A
C1231      C1240   1.412       .  A
C1231      C1232   1.406       .  A
C1232      C1233   1.404       .  A
C1232      H1243   1.083       .  S
C1233      C1234   1.405       .  A
C1233      H1244   1.083       .  S
C1234      C1235   1.413       .  A
C1235      C1236   1.410       .  A
C1235      H1245   1.084       .  S
C1236      C1957   1.407       .  A
C1237      C1956   1.404       .  A
C1237      H1246   1.084       .  S
C1238      C1959   1.405   1_655  A
C1238      H1247   1.085       .  S
C1239      C1958   1.407       .  A
C1239      C1240   1.411       .  A
C1240      H1248   1.084       .  S
C1249      C1250   1.396       .  A
C1249      C1254   1.402       .  A
C1249      H1265   1.084       .  S
C1250      C1251   1.402       .  A
C1250      H1266   1.084       .  S
C1251      C1261   1.398       .  A
C1251      C1252   1.410       .  A
C1252      C1258   1.413       .  A
C1252      C1253   1.415       .  A
C1253      C1255   1.412       .  A
C1253      C1254   1.411       .  A
C1254      C1262   1.400       .  A
C1255      C1264   1.412       .  A
C1255      C1256   1.405       .  A
C1256      C1257   1.404       .  A
C1256      H1267   1.083       .  S
C1257      C1258   1.405       .  A
C1257      H1268   1.084       .  S
C1258      C1259   1.413       .  A
C1259      C1260   1.411       .  A
C1259      H1269   1.084       .  S
C1260      C1261   1.406       .  A
C1261      H1270   1.084       .  S
C1262      C1263   1.405       .  A
C1262      H1271   1.084       .  S
C1263      C1264   1.410       .  A
C1264      H1272   1.084       .  S
C1273      C1274   1.399       .  A
C1273      C1278   1.403       .  A
C1273      H1289   1.083       .  S
C1274      C1275   1.404       .  A
C1274      H1290   1.083       .  S
C1275      C1285   1.403       .  A
C1276      C1282   1.411       .  A
C1276      C1277   1.414       .  A
C1277      C1279   1.410       .  A
C1278      C1286   1.401       .  A
C1279      C1288   1.400       .  A
C1279      C1280   1.403       .  A
C1280      C1281   1.397       .  A
C1280      H1291   1.084       .  S
C1281      C1282   1.403       .  A
C1281      H1292   1.083       .  S
C1282      C1283   1.401       .  A
C1283      H1293   1.084       .  S
C1284      C1285   1.406   1_545  A
C1285      H1294   1.084       .  S
C1286      C1287   1.406   1_565  A
C1286      H1295   1.085       .  S
C1288      H1296   1.084       .  S
C1297      C1298   1.396       .  A
C1297      C1302   1.402       .  A
C1297      H1313   1.084       .  S
C1298      C1299   1.402       .  A
C1298      H1314   1.084       .  S
C1299      C1309   1.399   1_455  A
C1299      C2740   1.410   1_455  A
C1300      C2739   1.410       .  A
C1300      C1306   1.413       .  A
C1300      C2741   1.415       .  A
C1301      C2740   1.414       .  A
C1301      C2743   1.412       .  A
C1301      C1302   1.411   1_655  A
C1302      C1310   1.399       .  A
C1303      C2741   1.412       .  A
C1303      C1312   1.411       .  A
C1303      C1304   1.405       .  A
C1304      C1305   1.404       .  A
C1304      H1315   1.083       .  S
C1305      C1306   1.405       .  A
C1305      H1316   1.083       .  S
C1306      C1307   1.412       .  A
C1307      C1308   1.410       .  A
C1307      H1317   1.084       .  S
C1308      C2749   1.406       .  A
C1309      C2748   1.405       .  A
C1309      H1318   1.085   1_655  S
C1310      C2751   1.405   1_455  A
C1310      H1319   1.084       .  S
C1311      C2750   1.405       .  A
C1311      C1312   1.411       .  A
C1312      H1320   1.084       .  S
C1321      C1322   1.397       .  A
C1321      C1326   1.402       .  A
C1321      H1337   1.084       .  S
C1322      C1323   1.403       .  A
C1322      H1338   1.083       .  S
C1323      C1333   1.402       .  A
C1323      C2764   1.413   1_465  A
C1324      C2763   1.413   1_545  A
C1324      C1325   1.412       .  A
C1325      C2766   1.410   1_545  A
C1326      C2765   1.410   1_465  A
C1326      C1334   1.399       .  A
C1327      C1336   1.400       .  A
C1327      C1328   1.403       .  A
C1328      C1329   1.397       .  A
C1328      H1339   1.084       .  S
C1329      C1330   1.403       .  A
C1329      H1340   1.084       .  S
C1330      C1331   1.401       .  A
C1331      H1341   1.084       .  S
C1332      C2773   1.405   1_545  A
C1333      C2772   1.404   1_565  A
C1333      H1342   1.084       .  S
C1334      C2775   1.405   1_465  A
C1334      H1343   1.085       .  S
C1335      C2774   1.405   1_545  A
C1336      H1344   1.084       .  S
C1345      C1346   1.402       .  A
C1345      C1350   1.404       .  A
C1345      H1361   1.083       .  S
C1346      C1347   1.404       .  A
C1346      H1362   1.083       .  S
C1347      C1357   1.409       .  A
C1347      C1348   1.412       .  A
C1348      C1354   1.411       .  A
C1348      C1349   1.416       .  A
C1349      C1351   1.411       .  A
C1349      C1350   1.412       .  A
C1350      C1358   1.408       .  A
C1351      C1360   1.405       .  A
C1351      C1352   1.404       .  A
C1352      C1353   1.399       .  A
C1352      H1363   1.084       .  S
C1353      C1354   1.404       .  A
C1353      H1364   1.084       .  S
C1354      C1355   1.404       .  A
C1355      C1356   1.409       .  A
C1355      H1365   1.084       .  S
C1356      C1357   1.408       .  A
C1357      H1366   1.084       .  S
C1358      C1359   1.409       .  A
C1358      H1367   1.084       .  S
C1359      C1360   1.408       .  A
C1360      H1368   1.084       .  S
C1369      C1370   1.402       .  A
C1369      C1374   1.405       .  A
C1369      H1385   1.084       .  S
C1370      C1371   1.405       .  A
C1370      H1386   1.083       .  S
C1371      C1381   1.408       .  A
C1372      C1378   1.412       .  A
C1372      C1373   1.415       .  A
C1373      C1375   1.411       .  A
C1374      C1382   1.407       .  A
C1375      C1384   1.405       .  A
C1375      C1376   1.404       .  A
C1376      C1377   1.400       .  A
C1376      H1387   1.084       .  S
C1377      C1378   1.404       .  A
C1377      H1388   1.084       .  S
C1378      C1379   1.406       .  A
C1379      H1389   1.084       .  S
C1380      C1381   1.409       .  A
C1381      H1390   1.084       .  S
C1382      C1383   1.409       .  A
C1382      H1391   1.084       .  S
C1384      H1392   1.084       .  S
C1393      C1394   1.398       .  A
C1393      C1398   1.403       .  A
C1393      H1409   1.084       .  S
C1394      C1395   1.403       .  A
C1394      H1410   1.084       .  S
C1395      C1405   1.403       .  A
C1395      C2836   1.412   1_455  A
C1396      C2835   1.412       .  A
C1396      C1402   1.411       .  A
C1396      C2837   1.415       .  A
C1397      C2836   1.415       .  A
C1397      C2839   1.413       .  A
C1397      C1398   1.410   1_655  A
C1398      C1406   1.401       .  A
C1399      C2837   1.413       .  A
C1399      C1408   1.412       .  A
C1399      C1400   1.405       .  A
C1400      C1401   1.403       .  A
C1400      H1411   1.083       .  S
C1401      C1402   1.406       .  A
C1401      H1412   1.084       .  S
C1402      C1403   1.410       .  A
C1403      C2844   1.412       .  A
C1403      H1413   1.084       .  S
C1404      C2843   1.410       .  A
C1404      C1405   1.405   1_655  A
C1405      H1414   1.084       .  S
C1406      C2847   1.407   1_455  A
C1406      H1415   1.084       .  S
C1407      C2846   1.408       .  A
C1407      C1408   1.411       .  A
C1408      H1416   1.084       .  S
C1417      C1418   1.401       .  A
C1417      C1422   1.404       .  A
C1417      H1433   1.084       .  S
C1418      C1419   1.404       .  A
C1418      H1434   1.083       .  S
C1419      C1429   1.407       .  A
C1420      C2866   1.411       .  A
C1420      C1421   1.417       .  A
C1421      C2863   1.411       .  A
C1422      C1430   1.407       .  A
C1423      C2861   1.411   1_455  A
C1423      C1432   1.404       .  A
C1423      C1424   1.404       .  A
C1424      C1425   1.400       .  A
C1424      H1435   1.084       .  S
C1425      C1426   1.404       .  A
C1425      H1436   1.084       .  S
C1426      C2860   1.412   1_455  A
C1426      C1427   1.405       .  A
C1427      C2868   1.408   1_455  A
C1427      H1437   1.084       .  S
C1428      C2867   1.409       .  A
C1429      H1438   1.084       .  S
C1430      H1439   1.084       .  S
C1431      C2872   1.409       .  A
C1432      C2871   1.409   1_455  A
C1432      H1440   1.084       .  S
O1441      C1451   1.278       .  A
O1441     Ni2169   1.918       .  S
O1442     Ni1449   1.911       .  S
O1443      C1453   1.280       .  A
O1443     Ni1449   1.909       .  S
O1444      C1454   1.282       .  A
O1444     Ni2169   1.918       .  S
O1445     Ni2170   1.905       .  S
O1446     Ni1450   1.908       .  S
O1447      C2172   1.285       .  A
O1447     Ni2170   1.934       .  S
O1448     Ni1450   1.927       .  S
Ni1449     O2161   1.917       .  S
Ni1449     O2164   1.906   1_545  S
Ni1450     O2165   1.912   1_545  S
Ni1450     O2167   1.925       .  S
C1452      O2167   1.283       .  A
C1452      C2151   1.478       .  S
C1453      C1468   1.457       .  S
C1454      C1467   1.460       .  S
O1455      C1465   1.280       .  A
O1455     Ni1463   1.920       .  S
O1456      C1466   1.283       .  A
O1456     Ni1463   1.918       .  S
O1457      C1467   1.280       .  A
O1457     Ni1463   1.913       .  S
O1458      C1468   1.279       .  A
O1458     Ni1463   1.907       .  S
O1459     Ni1464   1.912       .  S
O1460     Ni1464   1.908       .  S
O1461     Ni1464   1.919       .  S
O1462     Ni1464   1.918       .  S
C1466      C2124   1.480       .  S
O1469      C1479   1.280       .  A
O1469     Ni1477   1.918       .  S
O1470      C2200   1.282       .  A
O1470     Ni2197   1.925       .  S
O1471      C1481   1.281       .  A
O1471     Ni2197   1.915   1_545  S
O1472      C1482   1.280       .  A
O1472     Ni1477   1.912       .  S
O1473      C1482   1.280       .  A
O1473     Ni1478   1.911       .  S
O1474      C1481   1.278       .  A
O1474     Ni2198   1.903   1_545  S
O1475      C1480   1.284       .  A
O1475     Ni1478   1.926       .  S
O1476      C2199   1.280       .  A
O1476     Ni2198   1.919       .  S
Ni1477     O2190   1.922       .  S
Ni1477     O2191   1.917       .  S
Ni1477    Ni1478   2.391       .  S
Ni1478     O2194   1.916       .  S
Ni1478     O2196   1.925       .  S
C1479      O2196   1.282       .  A
C1479      C1535   1.464       .  S
C1480      O2190   1.282       .  A
C1480      C2100   1.486       .  S
C1481      C1495   1.457       .  S
C1482      C1496   1.460       .  S
O1483      C1493   1.278       .  A
O1483     Ni1491   1.915       .  S
O1484      C1494   1.281       .  A
O1484     Ni1491   1.911       .  S
O1485      C1495   1.280       .  A
O1485     Ni1491   1.907       .  S
O1486      C1496   1.279       .  A
O1486     Ni1491   1.908       .  S
O1487      C1496   1.281       .  A
O1487     Ni1492   1.915       .  S
O1488      C1495   1.279       .  A
O1488     Ni1492   1.911       .  S
O1489      C1494   1.283       .  A
O1489     Ni1492   1.927       .  S
O1490      C1493   1.283       .  A
O1490     Ni1492   1.926       .  S
Ni1491    Ni1492   2.392       .  S
C1493      C1549   1.462       .  S
C1494      C2076   1.481       .  S
O1498      C1508   1.283       .  A
O1498     Ni1505   1.928       .  S
O1499      C1509   1.280       .  A
O1499     Ni1505   1.909   1_655  S
O1500      C1510   1.279       .  A
O1501      C2230   1.282       .  A
O1502      C2229   1.279       .  A
O1502     Ni1506   1.906       .  S
O1504      C2227   1.279       .  A
O1504     Ni1506   1.915       .  S
Ni1505    Ni2226   2.392       .  S
Ni1506    Ni2225   2.393   1_645  S
C1507      O2224   1.280       .  A
C1508      C2052   1.485       .  S
C1509      O2222   1.279       .  A
C1509      C1538   1.455       .  S
C1510      O2221   1.281       .  A
C1510      C1537   1.460       .  S
O1512      C1522   1.282       .  A
O1512     Ni1519   1.922       .  S
O1513      C1523   1.279       .  A
O1513     Ni1519   1.909   1_655  S
O1514      C1524   1.279       .  A
O1515      C1524   1.281       .  A
O1516      C1523   1.279       .  A
O1516     Ni1520   1.907       .  S
O1518      C1521   1.279       .  A
O1518     Ni1520   1.915       .  S
Ni1519    Ni1520   2.394   1_455  S
C1522      C2031   1.476       .  S
C1523      C1551   1.456       .  S
C1524      C1552   1.460       .  S
O1525      C1535   1.281       .  A
O1525     Ni1533   1.920       .  S
O1526      C1536   1.282       .  A
O1526     Ni1533   1.923       .  S
O1527      C1537   1.281       .  A
O1527     Ni1533   1.913       .  S
O1528      C1538   1.279       .  A
O1528     Ni1533   1.909       .  S
O1529      C2258   1.279       .  A
O1529     Ni1534   1.906       .  S
O1530      C2257   1.278       .  A
O1530     Ni1534   1.907       .  S
O1531      C2256   1.282       .  A
O1531     Ni1534   1.922       .  S
O1532      C2255   1.282       .  A
O1532     Ni1534   1.923       .  S
Ni1533    Ni2254   2.392       .  S
Ni1534    Ni2253   2.393   1_545  S
C1535      O2252   1.281       .  A
C1536      O2251   1.283       .  A
C1536      C2004   1.485       .  S
C1537      O2250   1.279       .  A
C1538      O2249   1.279       .  A
O1539      C1549   1.281       .  A
O1539     Ni1547   1.923       .  S
O1540      C1550   1.282       .  A
O1540     Ni1547   1.921       .  S
O1541      C1551   1.279       .  A
O1541     Ni1547   1.907       .  S
O1542      C1552   1.279       .  A
O1542     Ni1547   1.908       .  S
O1543      C1552   1.281       .  A
O1543     Ni1548   1.915       .  S
O1544      C1551   1.280       .  A
O1544     Ni1548   1.909       .  S
O1545      C1550   1.281       .  A
O1545     Ni1548   1.917       .  S
O1546      C1549   1.280       .  A
O1546     Ni1548   1.917       .  S
Ni1547    Ni1548   2.393       .  S
C1550      C1980   1.477       .  S
O1554      C2284   1.284       .  A
O1554     Ni1561   1.936       .  S
O1555      C1565   1.280       .  A
O1555     Ni1561   1.910   1_655  S
O1556      C1566   1.278       .  A
O1557      C2286   1.280       .  A
O1558      C2285   1.278       .  A
O1558     Ni1562   1.906       .  S
O1560      C2283   1.282       .  A
O1560     Ni1562   1.923       .  S
Ni1561    Ni2282   2.390       .  S
Ni1562    Ni2281   2.391   1_545  S
C1563      O2280   1.282       .  A
C1563      C2055   1.485       .  S
C1564      O2274   1.279   1_545  A
C1564      C1956   1.472       .  S
C1565      O2278   1.278       .  A
C1565      C1594   1.456       .  S
C1566      O2277   1.280       .  A
C1566      C1593   1.457       .  S
O1567      C1577   1.280       .  A
O1568      C1578   1.278       .  A
O1568     Ni1575   1.905   1_655  S
O1570      C1580   1.281       .  A
O1570     Ni1575   1.915       .  S
O1572      C1579   1.281       .  A
O1572     Ni1576   1.921       .  S
O1573      C1578   1.280       .  A
O1573     Ni1576   1.912   1_655  S
O1574      C1577   1.278       .  A
Ni1575    Ni1576   2.391       .  S
C1577      C1607   1.456       .  S
C1578      C1608   1.457       .  S
C1579      C1932   1.477       .  S
C1580      C2028   1.475       .  S
O1581      C2311   1.281       .  A
O1581     Ni1589   1.923       .  S
O1582      C2312   1.282       .  A
O1582     Ni1589   1.923       .  S
O1583      C2313   1.278       .  A
O1583     Ni1589   1.906       .  S
O1584      C2314   1.280       .  A
O1584     Ni1589   1.912       .  S
O1585      C1594   1.278       .  A
O1585     Ni1590   1.906       .  S
O1586      C1593   1.280       .  A
O1586     Ni1590   1.910       .  S
O1587      C1592   1.285       .  A
O1587     Ni1590   1.937       .  S
O1588      C1591   1.284       .  A
O1588     Ni1590   1.938       .  S
Ni1589    Ni2310   2.391   1_545  S
Ni1590    Ni2309   2.390       .  S
C1591      O2301   1.281       .  A
C1591      C1908   1.484       .  S
C1592      O2302   1.281       .  A
C1592      C2007   1.486       .  S
C1593      O2303   1.279       .  A
C1594      O2304   1.280       .  A
O1595      C1605   1.281       .  A
O1595     Ni1603   1.913       .  S
O1596      C1606   1.281       .  A
O1596     Ni1603   1.915       .  S
O1597      C1607   1.278       .  A
O1597     Ni1603   1.906       .  S
O1598      C1608   1.280       .  A
O1598     Ni1603   1.913       .  S
O1599      C1608   1.278       .  A
O1599     Ni1604   1.905       .  S
O1600      C1607   1.280       .  A
O1600     Ni1604   1.911       .  S
O1601      C1606   1.282       .  A
O1601     Ni1604   1.922       .  S
O1602      C1605   1.282       .  A
O1602     Ni1604   1.922       .  S
Ni1603    Ni1604   2.391       .  S
C1605      C1887   1.477       .  S
C1606      C1983   1.476       .  S
O1609      C1619   1.282       .  A
O1609     Ni1617   1.920       .  S
O1610      C2340   1.283       .  A
O1610     Ni2337   1.929       .  S
O1611      C1621   1.282       .  A
O1611     Ni2337   1.920       .  S
O1612      C1622   1.278       .  A
O1612     Ni1617   1.905       .  S
O1613     Ni1618   1.913       .  S
O1614     Ni2338   1.906       .  S
O1615     Ni1618   1.913       .  S
O1616     Ni2338   1.920       .  S
Ni1617     O2330   1.919       .  S
Ni1617     O2331   1.911   1_545  S
Ni1618     O2334   1.910   1_545  S
Ni1618     O2336   1.913       .  S
C1619      C2148   1.479   1_556  S
C1620      O2330   1.282       .  A
C1620      C1860   1.477       .  S
C1621      C1635   1.461       .  S
C1622      C1636   1.460       .  S
O1623      C1633   1.282       .  A
O1623     Ni1631   1.923       .  S
O1624      C1634   1.282       .  A
O1624     Ni1631   1.924       .  S
O1625      C1635   1.279       .  A
O1625     Ni1631   1.913       .  S
O1626      C1636   1.280       .  A
O1626     Ni1631   1.909       .  S
O1627     Ni1632   1.909       .  S
O1628     Ni1632   1.908       .  S
O1629     Ni1632   1.911       .  S
O1630     Ni1632   1.912       .  S
C1633      C1836   1.473       .  S
C1634      C2127   1.476   1_556  S
O1637      C2367   1.283       .  A
O1637     Ni2365   1.925       .  S
O1638      C1648   1.284       .  A
O1638     Ni1645   1.932       .  S
O1639      C1649   1.278       .  A
O1639     Ni1645   1.909       .  S
O1640      C1650   1.280       .  A
O1640     Ni2365   1.916   1_545  S
O1641      C1650   1.280       .  A
O1641     Ni2366   1.907   1_545  S
O1642      C1649   1.281       .  A
O1642     Ni1646   1.915       .  S
O1643      C2368   1.282       .  A
O1643     Ni2366   1.913       .  S
O1644      C1647   1.282       .  A
O1644     Ni1646   1.916       .  S
Ni1645     O2357   1.932       .  S
Ni1645     O2360   1.912       .  S
Ni1645    Ni1646   2.389       .  S
Ni1646     O2361   1.911       .  S
Ni1646     O2363   1.916       .  S
C1647      O2357   1.284       .  A
C1647      C1815   1.485       .  S
C1648      O2363   1.282       .  A
C1648      C2103   1.486   1_556  S
C1649      C1664   1.460       .  S
C1650      C1663   1.461       .  S
O1651      C1661   1.282       .  A
O1651     Ni1659   1.914       .  S
O1652      C1662   1.281       .  A
O1652     Ni1659   1.915       .  S
O1653      C1663   1.278       .  A
O1653     Ni1659   1.905       .  S
O1654      C1664   1.278       .  A
O1654     Ni1659   1.907       .  S
O1655      C1664   1.281       .  A
O1655     Ni1660   1.916       .  S
O1656      C1663   1.281       .  A
O1656     Ni1660   1.919       .  S
O1657      C1662   1.282       .  A
O1657     Ni1660   1.923       .  S
O1658      C1661   1.282       .  A
O1658     Ni1660   1.924       .  S
Ni1659    Ni1660   2.390       .  S
C1661      C2079   1.481   1_556  S
C1662      C1791   1.473       .  S
O1665      C2395   1.283   1_655  A
O1665     Ni2393   1.929       .  S
O1666      C1676   1.282       .  A
O1666     Ni1673   1.919       .  S
O1667      C1677   1.280       .  A
O1667     Ni1673   1.907       .  S
O1668      C1678   1.281       .  A
O1668     Ni2393   1.914       .  S
O1669     Ni2394   1.911       .  S
O1670     Ni1674   1.909       .  S
O1671     Ni2394   1.924       .  S
O1672     Ni1674   1.921       .  S
Ni1673     O2385   1.920       .  S
Ni1673     O2388   1.912   1_545  S
Ni1674     O2389   1.906   1_545  S
Ni1674     O2391   1.916       .  S
C1675      O2385   1.281   1_455  A
C1675      C1731   1.461       .  S
C1676      C1863   1.476       .  S
C1677      C1692   1.456       .  S
C1678      C1691   1.461       .  S
O1679      C1689   1.281       .  A
O1679     Ni1687   1.922       .  S
O1680      C1690   1.282       .  A
O1680     Ni1687   1.920       .  S
O1681      C1691   1.280       .  A
O1681     Ni1687   1.912       .  S
O1682      C1692   1.279       .  A
O1682     Ni1687   1.905       .  S
O1683     Ni1688   1.910       .  S
O1684     Ni1688   1.910       .  S
O1685     Ni1688   1.919       .  S
O1686     Ni1688   1.923       .  S
C1689      C1745   1.462   1_655  S
C1690      C1839   1.473       .  S
O1693      C2423   1.282       .  A
O1693     Ni2421   1.926       .  S
O1694      C2424   1.282       .  A
O1694     Ni1701   1.918       .  S
O1695      C1705   1.279       .  A
O1695     Ni1701   1.909   1_545  S
O1696      C1706   1.279       .  A
O1696     Ni2421   1.909       .  S
O1697      C1706   1.280       .  A
O1697     Ni2422   1.912       .  S
O1698      C1705   1.280       .  A
O1698     Ni1702   1.911   1_545  S
O1699      C1704   1.282       .  A
O1699     Ni2422   1.922       .  S
O1700      C1703   1.280       .  A
O1700     Ni1702   1.919       .  S
Ni1701     O2413   1.921       .  S
Ni1701     O2416   1.910       .  S
Ni1701    Ni1702   2.393       .  S
Ni1702     O2417   1.906       .  S
Ni1702     O2419   1.918       .  S
C1703      O2413   1.281       .  A
C1703      C1759   1.461   1_565  S
C1704      O2414   1.284       .  A
C1704      C1812   1.485       .  S
C1705      C1720   1.458       .  S
C1706      C1719   1.459       .  S
O1707      C1717   1.280       .  A
O1707     Ni1715   1.918       .  S
O1708      C1718   1.281       .  A
O1708     Ni1715   1.915       .  S
O1709      C1719   1.281       .  A
O1709     Ni1715   1.913       .  S
O1710      C1720   1.280       .  A
O1710     Ni1715   1.909       .  S
O1711      C1720   1.280       .  A
O1711     Ni1716   1.912       .  S
O1712      C1719   1.279       .  A
O1712     Ni1716   1.908       .  S
O1713      C1718   1.281       .  A
O1713     Ni1716   1.920       .  S
O1714      C1717   1.281       .  A
O1714     Ni1716   1.921       .  S
Ni1715    Ni1716   2.393       .  S
C1717      C1773   1.461       .  S
C1718      C1788   1.472       .  S
O1721      C1731   1.280       .  A
O1721     Ni1729   1.916       .  S
O1722      C1732   1.281       .  A
O1722     Ni1729   1.914       .  S
O1723      C1733   1.279       .  A
O1723     Ni1729   1.905   1_655  S
O1724      C1734   1.280       .  A
O1725      C2454   1.278       .  A
O1726      C2453   1.279       .  A
O1726     Ni1730   1.909   1_655  S
O1727      C2452   1.283       .  A
O1727     Ni1730   1.930       .  S
O1728      C2451   1.284       .  A
O1728     Ni1730   1.930       .  S
Ni1729    Ni2450   2.394   1_545  S
Ni1730    Ni2449   2.392       .  S
C1731      O2448   1.281   1_545  A
C1732      O2447   1.282   1_545  A
C1732      C1959   1.473       .  S
C1733      O2446   1.281   1_545  A
C1733      C1762   1.457       .  S
C1734      O2445   1.279   1_545  A
C1734      C1761   1.458       .  S
O1735      C1745   1.282       .  A
O1735     Ni1743   1.922       .  S
O1736      C1746   1.282       .  A
O1736     Ni1743   1.922       .  S
O1737      C1747   1.279       .  A
O1738      C1748   1.279       .  A
O1738     Ni1743   1.908   1_655  S
O1739      C1748   1.279       .  A
O1739     Ni1744   1.908   1_655  S
O1740      C1747   1.281       .  A
O1741      C1746   1.282       .  A
O1741     Ni1744   1.914       .  S
O1742      C1745   1.279       .  A
O1742     Ni1744   1.918       .  S
Ni1743    Ni1744   2.393       .  S
C1746      C1935   1.477       .  S
C1747      C1775   1.459       .  S
C1748      C1776   1.456       .  S
O1749      C1759   1.280       .  A
O1749     Ni1757   1.918       .  S
O1750      C1760   1.281       .  A
O1750     Ni1757   1.919       .  S
O1751      C1761   1.279       .  A
O1751     Ni1757   1.908       .  S
O1752      C1762   1.280       .  A
O1752     Ni1757   1.911       .  S
O1753      C2482   1.280       .  A
O1753     Ni1758   1.909       .  S
O1754      C2481   1.281       .  A
O1754     Ni1758   1.914       .  S
O1755      C2480   1.282       .  A
O1755     Ni1758   1.925       .  S
O1756      C2479   1.281       .  A
O1756     Ni1758   1.920       .  S
Ni1757    Ni2478   2.393   1_545  S
Ni1758    Ni2477   2.392       .  S
C1759      O2476   1.281   1_545  A
C1760      O2475   1.283   1_545  A
C1760      C1911   1.476       .  S
C1761      O2474   1.280   1_545  A
C1762      O2473   1.279   1_545  A
O1763      C1773   1.281       .  A
O1763     Ni1771   1.921       .  S
O1764      C1774   1.283       .  A
O1764     Ni1771   1.920       .  S
O1765      C1775   1.279       .  A
O1765     Ni1771   1.907       .  S
O1766      C1776   1.279       .  A
O1766     Ni1771   1.908       .  S
O1767      C1776   1.279       .  A
O1767     Ni1772   1.908       .  S
O1768      C1775   1.281       .  A
O1768     Ni1772   1.913       .  S
O1769      C1774   1.282       .  A
O1769     Ni1772   1.920       .  S
O1770      C1773   1.280       .  A
O1770     Ni1772   1.917       .  S
Ni1771    Ni1772   2.393       .  S
C1774      C1884   1.479       .  S
C1777      C1778   1.397       .  A
C1777      C1782   1.403       .  A
C1777      H1793   1.084       .  S
C1778      C1779   1.403       .  A
C1778      H1794   1.083       .  S
C1779      C1789   1.400       .  A
C1779      C1780   1.412       .  A
C1780      C1786   1.413       .  A
C1780      C1781   1.411       .  A
C1781      C1783   1.412       .  A
C1781      C1782   1.412       .  A
C1782      C1790   1.401       .  A
C1783      C1792   1.405       .  A
C1783      C1784   1.405       .  A
C1784      C1785   1.401       .  A
C1784      H1795   1.083       .  S
C1785      C1786   1.404       .  A
C1785      H1796   1.083       .  S
C1786      C1787   1.405       .  A
C1787      C1788   1.405       .  A
C1787      H1797   1.085       .  S
C1788      C1789   1.404       .  A
C1789      H1798   1.084       .  S
C1790      C1791   1.403       .  A
C1790      H1799   1.084       .  S
C1791      C1792   1.406       .  A
C1792      H1800   1.085       .  S
C1801      C1802   1.401       .  A
C1801      C1806   1.404       .  A
C1801      H1817   1.084       .  S
C1802      C1803   1.405       .  A
C1802      H1818   1.083       .  S
C1803      C1813   1.407       .  A
C1803      C1804   1.411       .  A
C1804      C2530   1.413       .  A
C1804      C1805   1.415       .  A
C1805      C2527   1.411       .  A
C1805      C1806   1.413       .  A
C1806      C1814   1.409       .  A
C1807      C2525   1.411       .  A
C1807      C1816   1.400       .  A
C1807      C1808   1.404   1_565  A
C1808      C1809   1.397       .  A
C1808      H1819   1.084       .  S
C1809      C1810   1.403       .  A
C1809      H1820   1.084       .  S
C1810      C2524   1.412   1_545  A
C1810      C1811   1.401       .  A
C1811      C2532   1.406   1_545  A
C1811      H1821   1.084       .  S
C1812      C2531   1.407       .  A
C1812      C1813   1.410       .  A
C1813      H1822   1.084       .  S
C1814      C1815   1.408       .  A
C1814      H1823   1.085       .  S
C1815      C2536   1.408       .  A
C1816      C2535   1.407       .  A
C1816      H1824   1.084   1_565  S
C1825      C1826   1.399       .  A
C1825      C1830   1.404       .  A
C1825      H1841   1.083       .  S
C1826      C1827   1.404       .  A
C1826      H1842   1.084       .  S
C1827      C1837   1.404       .  A
C1827      C1828   1.412       .  A
C1828      C1829   1.410       .  A
C1829      C1830   1.412       .  A
C1830      C1838   1.404       .  A
C1831      C1840   1.400       .  A
C1831      C1832   1.402       .  A
C1832      C1833   1.397       .  A
C1832      H1843   1.083       .  S
C1833      C1834   1.402       .  A
C1833      H1844   1.083       .  S
C1834      C1835   1.399       .  A
C1835      H1845   1.085       .  S
C1836      C1837   1.405       .  A
C1837      H1846   1.085       .  S
C1838      C1839   1.406       .  A
C1838      H1847   1.085       .  S
C1840      H1848   1.084       .  S
C1849      C1850   1.396       .  A
C1849      C1854   1.402       .  A
C1849      H1865   1.084       .  S
C1850      C1851   1.403       .  A
C1850      H1866   1.084       .  S
C1851      C1861   1.399       .  A
C1852      C2578   1.412       .  A
C1852      C1853   1.411       .  A
C1853      C2575   1.412       .  A
C1854      C1862   1.399       .  A
C1855      C2573   1.412       .  A
C1855      C1864   1.411       .  A
C1855      C1856   1.406       .  A
C1856      C1857   1.403       .  A
C1856      H1867   1.083       .  S
C1857      C1858   1.406       .  A
C1857      H1868   1.084       .  S
C1858      C2572   1.412       .  A
C1858      C1859   1.411       .  A
C1859      C2580   1.411       .  A
C1859      H1869   1.085       .  S
C1860      C2579   1.406       .  A
C1861      H1870   1.084       .  S
C1862      H1871   1.085       .  S
C1863      C2584   1.407       .  A
C1864      C2583   1.411       .  A
C1864      H1872   1.084       .  S
C1873      C1874   1.400       .  A
C1873      C1878   1.403       .  A
C1873      H1889   1.083       .  S
C1874      C1875   1.404       .  A
C1874      H1890   1.083       .  S
C1875      C1885   1.405       .  A
C1875      C1876   1.411       .  A
C1876      C1882   1.412       .  A
C1876      C1877   1.412       .  A
C1877      C1879   1.411       .  A
C1877      C1878   1.412       .  A
C1878      C1886   1.405       .  A
C1879      C1888   1.400       .  A
C1879      C1880   1.402       .  A
C1880      C1881   1.397       .  A
C1880      H1891   1.084       .  S
C1881      C1882   1.403       .  A
C1881      H1892   1.083       .  S
C1882      C1883   1.402       .  A
C1883      C1884   1.405       .  A
C1883      H1893   1.085       .  S
C1884      C1885   1.408       .  A
C1885      H1894   1.084       .  S
C1886      C1887   1.407       .  A
C1886      H1895   1.085       .  S
C1887      C1888   1.406       .  A
C1888      H1896   1.084       .  S
C1897      C1898   1.405       .  A
C1897      C1902   1.406       .  A
C1897      H1913   1.084       .  S
C1898      C1899   1.406       .  A
C1898      H1914   1.083       .  S
C1899      C1909   1.414       .  A
C1899      C2620   1.414       .  A
C1900      C2619   1.411   1_545  A
C1900      C1906   1.412       .  A
C1900      C1901   1.412       .  A
C1901      C1903   1.411       .  A
C1901      C2622   1.412   1_545  A
C1902      C2621   1.411       .  A
C1902      C1910   1.411       .  A
C1903      C1912   1.405       .  A
C1903      C1904   1.404       .  A
C1904      C1905   1.400       .  A
C1904      H1915   1.083       .  S
C1905      C1906   1.404       .  A
C1905      H1916   1.083       .  S
C1906      C1907   1.406       .  A
C1907      C2628   1.406       .  A
C1907      H1917   1.084       .  S
C1908      C2627   1.406       .  A
C1908      C1909   1.410       .  A
C1909      H1918   1.084       .  S
C1910      C2631   1.412       .  A
C1910      H1919   1.084       .  S
C1911      C2630   1.404   1_545  A
C1911      C1912   1.407       .  A
C1912      H1920   1.084       .  S
C1921      C1922   1.400       .  A
C1921      C1926   1.404       .  A
C1921      H1937   1.083       .  S
C1922      C1923   1.404       .  A
C1922      H1938   1.083       .  S
C1923      C1933   1.405       .  A
C1923      C1924   1.412       .  A
C1924      C1925   1.411       .  A
C1925      C1926   1.412       .  A
C1926      C1934   1.405       .  A
C1927      C1936   1.401       .  A
C1927      C1928   1.403       .  A
C1928      C1929   1.397       .  A
C1928      H1939   1.083       .  S
C1929      C1930   1.402       .  A
C1929      H1940   1.084       .  S
C1930      C1931   1.401       .  A
C1931      H1941   1.085       .  S
C1932      C1933   1.407       .  A
C1933      H1942   1.084       .  S
C1934      C1935   1.407       .  A
C1934      H1943   1.084       .  S
C1936      H1944   1.085       .  S
C1945      C1946   1.397       .  A
C1945      C1950   1.403       .  A
C1945      H1961   1.084       .  S
C1946      C1947   1.403       .  A
C1946      H1962   1.084       .  S
C1947      C1957   1.401       .  A
C1948      C2674   1.413       .  A
C1948      C1949   1.415       .  A
C1949      C2671   1.412       .  A
C1950      C1958   1.402       .  A
C1951      C2669   1.412   1_465  A
C1951      C1960   1.403       .  A
C1951      C1952   1.403       .  A
C1952      C1953   1.398       .  A
C1952      H1963   1.082       .  S
C1953      C1954   1.403       .  A
C1953      H1964   1.084       .  S
C1954      C2668   1.411   1_465  A
C1954      C1955   1.400       .  A
C1955      C1956   1.405   1_465  A
C1955      H1965   1.085       .  S
C1957      H1966   1.084       .  S
C1958      H1967   1.085       .  S
C1959      C1960   1.405   1_545  A
C1960      H1968   1.084       .  S
C1969      C1970   1.399       .  A
C1969      C1974   1.403       .  A
C1969      H1985   1.083       .  S
C1970      C1971   1.404       .  A
C1970      H1986   1.083       .  S
C1971      C1981   1.403       .  A
C1971      C1972   1.411       .  A
C1972      C1978   1.412       .  A
C1972      C1973   1.412       .  A
C1973      C1975   1.411       .  A
C1973      C1974   1.412       .  A
C1974      C1982   1.404       .  A
C1975      C1984   1.402       .  A
C1975      C1976   1.403       .  A
C1976      C1977   1.399       .  A
C1976      H1987   1.084       .  S
C1977      C1978   1.403       .  A
C1977      H1988   1.083       .  S
C1978      C1979   1.403       .  A
C1979      C1980   1.406       .  A
C1979      H1989   1.084       .  S
C1980      C1981   1.407       .  A
C1981      H1990   1.085       .  S
C1982      C1983   1.406       .  A
C1982      H1991   1.084       .  S
C1983      C1984   1.406       .  A
C1984      H1992   1.085       .  S
C1993      C1994   1.402       .  A
C1993      C1998   1.405       .  A
C1993      H2009   1.083       .  S
C1994      C1995   1.405       .  A
C1994      H2010   1.084       .  S
C1995      C2005   1.408       .  A
C1995      C2716   1.411       .  A
C1996      C2715   1.412   1_545  A
C1996      C2002   1.412       .  A
C1996      C1997   1.412       .  A
C1997      C1999   1.412       .  A
C1997      C2718   1.411   1_545  A
C1998      C2717   1.413       .  A
C1998      C2006   1.410       .  A
C1999      C2008   1.403       .  A
C1999      C2000   1.403       .  A
C2000      C2001   1.399       .  A
C2000      H2011   1.083       .  S
C2001      C2002   1.403       .  A
C2001      H2012   1.083       .  S
C2002      C2003   1.403       .  A
C2003      C2724   1.405       .  A
C2003      H2013   1.084       .  S
C2004      C2723   1.406       .  A
C2004      C2005   1.410       .  A
C2005      H2014   1.084       .  S
C2006      C2007   1.409       .  A
C2006      H2015   1.084       .  S
C2007      C2728   1.408       .  A
C2008      C2727   1.405       .  A
C2008      H2016   1.085       .  S
C2017      C2018   1.400       .  A
C2017      C2022   1.404       .  A
C2017      H2033   1.083       .  S
C2018      C2019   1.403       .  A
C2018      H2034   1.083       .  S
C2019      C2029   1.404       .  A
C2020      C2026   1.412   1_455  A
C2021      C2022   1.412       .  A
C2022      C2030   1.406       .  A
C2023      C2032   1.401       .  A
C2023      C2024   1.403       .  A
C2024      C2025   1.398       .  A
C2024      H2035   1.084       .  S
C2025      C2026   1.403       .  A
C2025      H2036   1.083       .  S
C2026      C2027   1.402       .  A
C2027      C2028   1.406   1_655  A
C2027      H2037   1.084       .  S
C2029      H2038   1.085       .  S
C2030      H2039   1.084       .  S
C2031      C2032   1.406   1_455  A
C2032      H2040   1.085       .  S
C2041      C2042   1.404       .  A
C2041      C2046   1.405       .  A
C2041      H2057   1.083       .  S
C2042      C2043   1.405       .  A
C2042      H2058   1.084       .  S
C2043      C2053   1.412       .  A
C2044      C2770   1.411       .  A
C2044      C2045   1.414       .  A
C2045      C2767   1.410       .  A
C2046      C2054   1.413       .  A
C2047      C2765   1.413       .  A
C2047      C2056   1.405       .  A
C2047      C2048   1.403       .  A
C2048      C2049   1.399       .  A
C2048      H2059   1.083       .  S
C2049      C2050   1.404       .  A
C2049      H2060   1.083       .  S
C2050      C2764   1.411       .  A
C2050      C2051   1.403       .  A
C2051      C2772   1.407   1_655  A
C2051      H2061   1.085       .  S
C2052      C2771   1.406   1_455  A
C2053      H2062   1.084       .  S
C2054      H2063   1.084       .  S
C2055      C2776   1.406       .  A
C2056      C2775   1.405       .  A
C2056      H2064   1.084       .  S
C2065      C2066   1.402       .  A
C2065      C2070   1.405       .  A
C2065      H2081   1.083       .  S
C2066      C2067   1.405       .  A
C2066      H2082   1.084       .  S
C2067      C2077   1.409       .  A
C2067      C2068   1.412       .  A
C2068      C2074   1.411       .  A
C2068      C2069   1.412       .  A
C2069      C2071   1.411       .  A
C2069      C2070   1.412       .  A
C2070      C2078   1.408       .  A
C2071      C2080   1.398       .  A
C2071      C2072   1.402       .  A
C2072      C2073   1.395       .  A
C2072      H2083   1.084       .  S
C2073      C2074   1.402       .  A
C2073      H2084   1.084       .  S
C2074      C2075   1.398       .  A
C2075      C2076   1.405       .  A
C2075      H2085   1.084       .  S
C2076      C2077   1.409       .  A
C2077      H2086   1.084       .  S
C2078      C2079   1.410       .  A
C2078      H2087   1.084       .  S
C2079      C2080   1.405       .  A
C2080      H2088   1.084       .  S
C2089      C2090   1.401       .  A
C2089      C2094   1.404       .  A
C2089      H2105   1.083       .  S
C2090      C2091   1.405       .  A
C2090      H2106   1.084       .  S
C2091      C2101   1.406       .  A
C2091      C2812   1.411       .  A
C2092      C2811   1.412       .  A
C2092      C2098   1.411   1_565  A
C2092      C2093   1.412       .  A
C2093      C2095   1.411   1_565  A
C2093      C2814   1.412       .  A
C2094      C2813   1.413       .  A
C2094      C2102   1.409       .  A
C2095      C2104   1.398   1_545  A
C2095      C2096   1.402       .  A
C2096      C2097   1.395       .  A
C2096      H2107   1.084       .  S
C2097      C2098   1.402       .  A
C2097      H2108   1.084       .  S
C2098      C2099   1.397       .  A
C2099      C2820   1.404   1_545  A
C2099      H2109   1.085       .  S
C2100      C2819   1.407       .  A
C2100      C2101   1.410       .  A
C2101      H2110   1.084       .  S
C2102      C2103   1.409       .  A
C2102      H2111   1.084       .  S
C2103      C2824   1.408       .  A
C2104      C2823   1.405       .  A
C2104      H2112   1.084   1_565  S
C2113      C2114   1.397       .  A
C2113      C2118   1.403       .  A
C2113      H2129   1.084       .  S
C2114      C2115   1.403       .  A
C2114      H2130   1.084       .  S
C2115      C2125   1.400       .  A
C2116      C2122   1.412       .  A
C2117      C2118   1.411       .  A
C2118      C2126   1.399       .  A
C2119      C2128   1.405       .  A
C2119      C2120   1.404       .  A
C2120      C2121   1.400       .  A
C2120      H2131   1.083       .  S
C2121      C2122   1.404       .  A
C2121      H2132   1.084       .  S
C2122      C2123   1.404       .  A
C2123      H2133   1.084       .  S
C2124      C2125   1.405       .  A
C2125      H2134   1.084       .  S
C2126      H2135   1.084       .  S
C2127      C2128   1.406       .  A
C2128      H2136   1.084       .  S
C2137      C2138   1.401       .  A
C2137      C2142   1.404       .  A
C2137      H2153   1.083       .  S
C2138      C2139   1.404       .  A
C2138      H2154   1.083       .  S
C2139      C2149   1.407       .  A
C2139      C2860   1.412       .  A
C2140      C2859   1.412       .  A
C2140      C2141   1.412       .  A
C2141      C2862   1.412       .  A
C2142      C2861   1.413       .  A
C2142      C2150   1.408       .  A
C2143      C2152   1.400       .  A
C2143      C2144   1.403       .  A
C2144      C2145   1.397       .  A
C2144      H2155   1.084       .  S
C2145      C2146   1.403   1_565  A
C2145      H2156   1.084       .  S
C2146      C2147   1.400       .  A
C2147      H2157   1.084   1_545  S
C2148      C2869   1.407       .  A
C2149      C2868   1.408       .  A
C2149      H2158   1.084       .  S
C2150      C2871   1.407       .  A
C2150      H2159   1.084       .  S
C2151      C2870   1.407       .  A
C2152      H2160   1.084       .  S
O2161      C2171   1.279       .  A
O2162     Ni2169   1.917       .  S
O2163      C2173   1.284       .  A
O2163     Ni2169   1.924       .  S
O2164      C2174   1.280       .  A
O2166     Ni2170   1.908       .  S
O2168     Ni2170   1.932       .  S
C2172      C2871   1.485       .  S
C2173      C2188   1.466       .  S
C2174      C2187   1.457       .  S
O2175      C2185   1.282       .  A
O2175     Ni2183   1.926       .  S
O2176      C2186   1.284       .  A
O2176     Ni2183   1.925       .  S
O2177      C2187   1.278       .  A
O2177     Ni2183   1.903       .  S
O2178      C2188   1.278       .  A
O2178     Ni2183   1.911       .  S
O2179     Ni2184   1.923       .  S
O2180     Ni2184   1.914       .  S
O2181     Ni2184   1.922       .  S
O2182     Ni2184   1.919       .  S
C2186      C2844   1.487       .  S
O2189      C2199   1.282       .  A
O2189     Ni2197   1.925       .  S
O2191      C2201   1.282       .  A
O2192      C2202   1.281       .  A
O2192     Ni2197   1.910       .  S
O2193      C2202   1.278       .  A
O2193     Ni2198   1.907       .  S
O2194      C2201   1.280       .  A
O2195      C2200   1.282       .  A
O2195     Ni2198   1.913       .  S
Ni2197    Ni2198   2.392       .  S
C2199      C2255   1.464   1_565  S
C2200      C2820   1.480       .  S
C2201      C2215   1.467       .  S
C2202      C2216   1.456       .  S
O2203      C2213   1.279       .  A
O2203     Ni2211   1.918       .  S
O2204      C2214   1.281       .  A
O2204     Ni2211   1.917       .  S
O2205      C2215   1.283       .  A
O2205     Ni2211   1.925       .  S
O2206      C2216   1.281       .  A
O2206     Ni2211   1.915       .  S
O2207      C2216   1.277       .  A
O2207     Ni2212   1.902       .  S
O2208      C2215   1.278       .  A
O2208     Ni2212   1.907       .  S
O2209      C2214   1.286       .  A
O2209     Ni2212   1.937       .  S
O2210      C2213   1.285       .  A
O2210     Ni2212   1.936       .  S
Ni2211    Ni2212   2.390       .  S
C2213      C2269   1.473       .  S
C2214      C2796   1.489       .  S
O2218      C2228   1.283   1_565  A
O2218     Ni2225   1.924       .  S
O2219      C2229   1.279   1_565  A
O2219     Ni2225   1.908   1_655  S
O2220      C2230   1.278   1_565  A
O2222     Ni2226   1.905   1_655  S
O2224     Ni2226   1.922       .  S
C2228      C2772   1.476       .  S
C2229      C2258   1.454       .  S
C2230      C2257   1.461       .  S
O2232      C2242   1.283       .  A
O2232     Ni2239   1.917       .  S
O2233      C2243   1.279       .  A
O2233     Ni2239   1.909       .  S
O2234      C2244   1.279       .  A
O2235      C2244   1.281       .  A
O2236      C2243   1.279       .  A
O2236     Ni2240   1.907       .  S
O2238      C2241   1.283       .  A
O2238     Ni2240   1.925       .  S
Ni2239    Ni2240   2.392       .  S
C2242      C2751   1.484       .  S
C2243      C2271   1.456       .  S
C2244      C2272   1.460       .  S
O2245      C2255   1.280   1_565  A
O2245     Ni2253   1.919       .  S
O2246      C2256   1.281   1_565  A
O2246     Ni2253   1.918       .  S
O2247      C2257   1.282   1_565  A
O2247     Ni2253   1.917       .  S
O2248      C2258   1.280   1_565  A
O2248     Ni2253   1.908       .  S
O2249     Ni2254   1.908       .  S
O2250     Ni2254   1.909       .  S
O2251     Ni2254   1.921       .  S
O2252     Ni2254   1.923       .  S
C2256      C2724   1.476       .  S
O2259      C2269   1.286       .  A
O2259     Ni2267   1.935       .  S
O2260      C2270   1.284       .  A
O2260     Ni2267   1.938       .  S
O2261      C2271   1.279       .  A
O2261     Ni2267   1.906       .  S
O2262      C2272   1.278       .  A
O2262     Ni2267   1.907       .  S
O2263      C2272   1.281       .  A
O2263     Ni2268   1.915       .  S
O2264      C2271   1.280       .  A
O2264     Ni2268   1.909       .  S
O2265      C2270   1.282       .  A
O2265     Ni2268   1.914       .  S
O2266      C2269   1.279       .  A
O2266     Ni2268   1.920       .  S
Ni2267    Ni2268   2.391       .  S
C2270      C2700   1.487       .  S
O2274     Ni2281   1.909       .  S
O2275      C2285   1.280   1_565  A
O2275     Ni2281   1.913       .  S
O2276      C2286   1.278   1_565  A
O2278     Ni2282   1.906   1_655  S
O2280     Ni2282   1.912       .  S
C2283      C2775   1.473       .  S
C2284      C2676   1.485       .  S
C2285      C2314   1.457       .  S
C2286      C2313   1.457       .  S
O2287      C2297   1.279       .  A
O2288      C2298   1.278       .  A
O2288     Ni2295   1.907       .  S
O2290      C2300   1.283       .  A
O2290     Ni2295   1.934       .  S
O2292      C2299   1.281       .  A
O2292     Ni2296   1.914       .  S
O2293      C2298   1.280       .  A
O2293     Ni2296   1.911       .  S
O2294      C2297   1.279       .  A
Ni2295    Ni2296   2.390       .  S
C2297      C2327   1.456       .  S
C2298      C2328   1.457       .  S
C2299      C2652   1.483       .  S
C2300      C2748   1.484       .  S
O2301     Ni2309   1.909       .  S
O2302     Ni2309   1.909       .  S
O2303     Ni2309   1.908       .  S
O2304     Ni2309   1.911       .  S
O2305      C2314   1.278   1_565  A
O2305     Ni2310   1.905       .  S
O2306      C2313   1.280   1_565  A
O2306     Ni2310   1.912       .  S
O2307      C2312   1.280   1_565  A
O2307     Ni2310   1.914       .  S
O2308      C2311   1.280   1_565  A
O2308     Ni2310   1.912       .  S
C2311      C2628   1.474       .  S
C2312      C2727   1.475       .  S
O2315      C2325   1.284       .  A
O2315     Ni2323   1.935       .  S
O2316      C2326   1.284       .  A
O2316     Ni2323   1.936       .  S
O2317      C2327   1.278       .  A
O2317     Ni2323   1.906       .  S
O2318      C2328   1.280       .  A
O2318     Ni2323   1.912       .  S
O2319      C2328   1.278       .  A
O2319     Ni2324   1.906       .  S
O2320      C2327   1.280       .  A
O2320     Ni2324   1.911       .  S
O2321      C2326   1.282       .  A
O2321     Ni2324   1.916       .  S
O2322      C2325   1.282       .  A
O2322     Ni2324   1.916       .  S
Ni2323    Ni2324   2.389       .  S
C2325      C2607   1.486       .  S
C2326      C2703   1.487       .  S
O2329      C2339   1.283       .  A
O2329     Ni2337   1.928       .  S
O2331      C2341   1.280       .  A
O2332      C2342   1.280       .  A
O2332     Ni2337   1.911       .  S
O2333     Ni2338   1.912       .  S
O2335     Ni2338   1.919       .  S
C2339      C2868   1.485   1_556  S
C2340      C2580   1.486       .  S
C2341      C2355   1.459       .  S
C2342      C2356   1.458       .  S
O2343      C2353   1.285       .  A
O2343     Ni2351   1.932       .  S
O2344      C2354   1.284       .  A
O2344     Ni2351   1.931       .  S
O2345      C2355   1.279       .  A
O2345     Ni2351   1.910       .  S
O2346      C2356   1.279       .  A
O2346     Ni2351   1.908       .  S
O2347     Ni2352   1.915       .  S
O2348     Ni2352   1.913       .  S
O2349     Ni2352   1.915       .  S
O2350     Ni2352   1.918       .  S
C2353      C2556   1.484       .  S
C2354      C2847   1.486   1_556  S
O2358      C2368   1.283       .  A
O2358     Ni2365   1.927       .  S
O2359      C2369   1.279       .  A
O2359     Ni2365   1.906       .  S
O2360      C2370   1.280       .  A
O2361      C2370   1.279       .  A
O2362      C2369   1.279       .  A
O2362     Ni2366   1.911       .  S
O2364      C2367   1.281       .  A
O2364     Ni2366   1.912       .  S
Ni2365    Ni2366   2.390       .  S
C2367      C2535   1.480       .  S
C2368      C2823   1.481   1_556  S
C2369      C2384   1.457       .  S
C2370      C2383   1.460       .  S
O2371      C2381   1.282       .  A
O2371     Ni2379   1.920       .  S
O2372      C2382   1.282       .  A
O2372     Ni2379   1.921       .  S
O2373      C2383   1.281       .  A
O2373     Ni2379   1.916       .  S
O2374      C2384   1.281       .  A
O2374     Ni2379   1.915       .  S
O2375      C2384   1.278       .  A
O2375     Ni2380   1.901       .  S
O2376      C2383   1.279       .  A
O2376     Ni2380   1.907       .  S
O2377      C2382   1.284       .  A
O2377     Ni2380   1.934       .  S
O2378      C2381   1.285       .  A
O2378     Ni2380   1.933       .  S
Ni2379    Ni2380   2.389       .  S
C2381      C2799   1.489   1_556  S
C2382      C2511   1.484       .  S
O2386      C2396   1.283       .  A
O2386     Ni2393   1.931       .  S
O2387      C2397   1.280       .  A
O2387     Ni2393   1.914       .  S
O2388      C2398   1.280       .  A
O2390     Ni2394   1.919       .  S
O2392     Ni2394   1.926       .  S
C2395      C2451   1.471       .  S
C2396      C2583   1.487       .  S
C2397      C2412   1.464       .  S
C2398      C2411   1.457       .  S
O2399      C2409   1.282       .  A
O2399     Ni2407   1.925       .  S
O2400      C2410   1.284       .  A
O2400     Ni2407   1.930       .  S
O2401      C2411   1.280       .  A
O2401     Ni2407   1.912       .  S
O2402      C2412   1.280       .  A
O2402     Ni2407   1.913       .  S
O2403     Ni2408   1.917       .  S
O2404     Ni2408   1.908       .  S
O2405     Ni2408   1.923       .  S
O2406     Ni2408   1.923       .  S
C2409      C2465   1.467       .  S
C2410      C2559   1.485       .  S
O2414     Ni2421   1.927       .  S
O2415      C2425   1.279       .  A
O2415     Ni2421   1.911       .  S
O2416      C2426   1.279       .  A
O2417      C2426   1.280       .  A
O2418      C2425   1.282       .  A
O2418     Ni2422   1.919       .  S
O2419      C2424   1.282       .  A
O2420      C2423   1.280       .  A
O2420     Ni2422   1.919       .  S
Ni2421    Ni2422   2.391       .  S
C2423      C2479   1.465       .  S
C2424      C2532   1.479       .  S
C2425      C2440   1.465       .  S
C2426      C2439   1.456       .  S
O2427      C2437   1.280       .  A
O2427     Ni2435   1.920       .  S
O2428      C2438   1.282       .  A
O2428     Ni2435   1.921       .  S
O2429      C2439   1.281       .  A
O2429     Ni2435   1.913       .  S
O2430      C2440   1.281       .  A
O2430     Ni2435   1.915       .  S
O2431      C2440   1.280       .  A
O2431     Ni2436   1.915       .  S
O2432      C2439   1.278       .  A
O2432     Ni2436   1.903       .  S
O2433      C2438   1.284       .  A
O2433     Ni2436   1.932       .  S
O2434      C2437   1.283       .  A
O2434     Ni2436   1.929       .  S
Ni2435    Ni2436   2.391       .  S
C2437      C2493   1.469       .  S
C2438      C2508   1.484       .  S
O2441      C2451   1.280       .  A
O2441     Ni2449   1.924       .  S
O2442      C2452   1.283       .  A
O2442     Ni2449   1.919       .  S
O2443      C2453   1.279       .  A
O2443     Ni2449   1.907   1_655  S
O2444      C2454   1.281       .  A
O2446     Ni2450   1.912   1_655  S
O2447     Ni2450   1.919       .  S
O2448     Ni2450   1.922       .  S
C2452      C2679   1.485       .  S
C2453      C2482   1.456       .  S
C2454      C2481   1.459       .  S
O2455      C2465   1.281       .  A
O2455     Ni2463   1.924       .  S
O2456      C2466   1.283       .  A
O2456     Ni2463   1.920       .  S
O2457      C2467   1.279       .  A
O2458      C2468   1.279       .  A
O2458     Ni2463   1.909       .  S
O2459      C2468   1.279       .  A
O2459     Ni2464   1.907       .  S
O2460      C2467   1.281       .  A
O2461      C2466   1.282       .  A
O2461     Ni2464   1.926       .  S
O2462      C2465   1.282       .  A
O2462     Ni2464   1.924       .  S
Ni2463    Ni2464   2.392       .  S
C2466      C2655   1.483       .  S
C2467      C2495   1.459       .  S
C2468      C2496   1.455       .  S
O2469      C2479   1.281       .  A
O2469     Ni2477   1.925       .  S
O2470      C2480   1.284       .  A
O2470     Ni2477   1.924       .  S
O2471      C2481   1.278       .  A
O2471     Ni2477   1.907       .  S
O2472      C2482   1.279       .  A
O2472     Ni2477   1.907       .  S
O2473     Ni2478   1.908       .  S
O2474     Ni2478   1.911       .  S
O2475     Ni2478   1.921       .  S
O2476     Ni2478   1.921       .  S
C2480      C2631   1.485       .  S
O2483      C2493   1.284       .  A
O2483     Ni2491   1.930       .  S
O2484      C2494   1.284       .  A
O2484     Ni2491   1.933       .  S
O2485      C2495   1.278       .  A
O2485     Ni2491   1.907       .  S
O2486      C2496   1.279       .  A
O2486     Ni2491   1.907       .  S
O2487      C2496   1.280       .  A
O2487     Ni2492   1.909       .  S
O2488      C2495   1.281       .  A
O2488     Ni2492   1.915       .  S
O2489      C2494   1.282       .  A
O2489     Ni2492   1.917       .  S
O2490      C2493   1.279       .  A
O2490     Ni2492   1.920       .  S
Ni2491    Ni2492   2.392       .  S
C2494      C2604   1.486       .  S
C2497      C2498   1.399       .  A
C2497      C2502   1.404       .  A
C2497      H2513   1.083       .  S
C2498      C2499   1.404       .  A
C2498      H2514   1.083       .  S
C2499      C2509   1.404       .  A
C2499      C2500   1.412       .  A
C2500      C2506   1.413       .  A
C2500      C2501   1.416       .  A
C2501      C2503   1.412       .  A
C2501      C2502   1.412       .  A
C2502      C2510   1.405       .  A
C2503      C2512   1.410       .  A
C2503      C2504   1.406       .  A
C2504      C2505   1.403       .  A
C2504      H2515   1.083       .  S
C2505      C2506   1.405       .  A
C2505      H2516   1.084       .  S
C2506      C2507   1.410       .  A
C2507      C2508   1.409       .  A
C2507      H2517   1.085       .  S
C2508      C2509   1.406       .  A
C2509      H2518   1.084       .  S
C2510      C2511   1.406       .  A
C2510      H2519   1.084       .  S
C2511      C2512   1.409       .  A
C2512      H2520   1.084       .  S
C2521      C2522   1.400       .  A
C2521      C2526   1.404       .  A
C2521      H2537   1.084       .  S
C2522      C2523   1.404       .  A
C2522      H2538   1.083       .  S
C2523      C2533   1.404       .  A
C2523      C2524   1.411       .  A
C2524      C2525   1.412       .  A
C2525      C2526   1.412       .  A
C2526      C2534   1.405       .  A
C2527      C2536   1.403       .  A
C2527      C2528   1.404       .  A
C2528      C2529   1.399       .  A
C2528      H2539   1.083       .  S
C2529      C2530   1.403       .  A
C2529      H2540   1.084       .  S
C2530      C2531   1.405       .  A
C2531      H2541   1.084       .  S
C2532      C2533   1.408       .  A
C2533      H2542   1.084       .  S
C2534      C2535   1.408       .  A
C2534      H2543   1.085       .  S
C2536      H2544   1.084       .  S
C2545      C2546   1.400       .  A
C2545      C2550   1.403       .  A
C2545      H2561   1.083       .  S
C2546      C2547   1.404       .  A
C2546      H2562   1.084       .  S
C2547      C2557   1.406       .  A
C2547      C2548   1.412       .  A
C2548      C2549   1.415       .  A
C2549      C2550   1.412       .  A
C2550      C2558   1.407       .  A
C2551      C2560   1.405       .  A
C2551      C2552   1.404       .  A
C2552      C2553   1.400       .  A
C2552      H2563   1.083       .  S
C2553      C2554   1.404       .  A
C2553      H2564   1.083       .  S
C2554      C2555   1.406       .  A
C2555      H2565   1.084       .  S
C2556      C2557   1.407       .  A
C2557      H2566   1.085       .  S
C2558      C2559   1.407       .  A
C2558      H2567   1.084       .  S
C2560      H2568   1.084       .  S
C2569      C2570   1.398       .  A
C2569      C2574   1.403       .  A
C2569      H2585   1.084       .  S
C2570      C2571   1.403       .  A
C2570      H2586   1.083       .  S
C2571      C2581   1.402       .  A
C2572      C2573   1.415       .  A
C2574      C2582   1.403       .  A
C2575      C2584   1.404       .  A
C2575      C2576   1.404       .  A
C2576      C2577   1.399       .  A
C2576      H2587   1.083       .  S
C2577      C2578   1.404       .  A
C2577      H2588   1.084       .  S
C2578      C2579   1.404       .  A
C2579      H2589   1.085       .  S
C2581      H2590   1.084       .  S
C2582      H2591   1.084       .  S
C2584      H2592   1.084       .  S
C2593      C2594   1.397       .  A
C2593      C2598   1.403       .  A
C2593      H2609   1.084       .  S
C2594      C2595   1.403       .  A
C2594      H2610   1.084       .  S
C2595      C2605   1.401       .  A
C2595      C2596   1.411       .  A
C2596      C2602   1.412       .  A
C2596      C2597   1.415       .  A
C2597      C2599   1.412       .  A
C2597      C2598   1.411       .  A
C2598      C2606   1.400       .  A
C2599      C2608   1.412       .  A
C2599      C2600   1.405       .  A
C2600      C2601   1.404       .  A
C2600      H2611   1.083       .  S
C2601      C2602   1.405       .  A
C2601      H2612   1.084       .  S
C2602      C2603   1.412       .  A
C2603      C2604   1.410       .  A
C2603      H2613   1.084       .  S
C2604      C2605   1.406       .  A
C2605      H2614   1.084       .  S
C2606      C2607   1.406       .  A
C2606      H2615   1.084       .  S
C2607      C2608   1.410       .  A
C2608      H2616   1.084       .  S
C2617      C2618   1.397       .  A
C2617      C2622   1.403       .  A
C2617      H2633   1.083       .  S
C2618      C2619   1.402       .  A
C2618      H2634   1.083       .  S
C2619      C2629   1.399       .  A
C2620      C2626   1.409       .  A
C2620      C2621   1.415       .  A
C2621      C2623   1.412       .  A
C2622      C2630   1.401       .  A
C2623      C2632   1.400       .  A
C2623      C2624   1.402       .  A
C2624      C2625   1.395       .  A
C2624      H2635   1.084       .  S
C2625      C2626   1.402       .  A
C2625      H2636   1.084       .  S
C2626      C2627   1.397       .  A
C2627      H2637   1.085       .  S
C2628      C2629   1.404   1_545  A
C2629      H2638   1.085       .  S
C2630      H2639   1.084       .  S
C2631      C2632   1.404       .  A
C2632      H2640   1.084       .  S
C2641      C2642   1.397       .  A
C2641      C2646   1.402       .  A
C2641      H2657   1.084       .  S
C2642      C2643   1.403       .  A
C2642      H2658   1.084       .  S
C2643      C2653   1.400       .  A
C2643      C2644   1.410   1_455  A
C2644      C2645   1.414       .  A
C2645      C2646   1.412   1_655  A
C2646      C2654   1.401       .  A
C2647      C2656   1.409       .  A
C2647      C2648   1.405       .  A
C2648      C2649   1.403       .  A
C2648      H2659   1.084       .  S
C2649      C2650   1.405       .  A
C2649      H2660   1.083       .  S
C2650      C2651   1.411       .  A
C2651      H2661   1.084       .  S
C2652      C2653   1.406   1_655  A
C2653      H2662   1.085       .  S
C2654      C2655   1.405   1_455  A
C2654      H2663   1.084       .  S
C2656      H2664   1.084       .  S
C2665      C2666   1.399       .  A
C2665      C2670   1.404       .  A
C2665      H2681   1.083       .  S
C2666      C2667   1.403       .  A
C2666      H2682   1.082       .  S
C2667      C2677   1.404       .  A
C2668      C2669   1.410       .  A
C2670      C2678   1.402       .  A
C2671      C2680   1.410       .  A
C2671      C2672   1.405       .  A
C2672      C2673   1.403       .  A
C2672      H2683   1.083       .  S
C2673      C2674   1.405       .  A
C2673      H2684   1.083       .  S
C2674      C2675   1.411       .  A
C2675      C2676   1.409       .  A
C2675      H2685   1.084       .  S
C2677      H2686   1.084       .  S
C2678      H2687   1.084       .  S
C2679      C2680   1.410       .  A
C2680      H2688   1.084       .  S
C2689      C2690   1.396       .  A
C2689      C2694   1.402       .  A
C2689      H2705   1.084       .  S
C2690      C2691   1.402       .  A
C2690      H2706   1.084       .  S
C2691      C2701   1.399       .  A
C2691      C2692   1.410       .  A
C2692      C2698   1.413       .  A
C2692      C2693   1.416       .  A
C2693      C2695   1.412       .  A
C2693      C2694   1.411       .  A
C2694      C2702   1.400       .  A
C2695      C2704   1.413       .  A
C2695      C2696   1.406       .  A
C2696      C2697   1.405       .  A
C2696      H2707   1.083       .  S
C2697      C2698   1.406       .  A
C2697      H2708   1.084       .  S
C2698      C2699   1.414       .  A
C2699      C2700   1.411       .  A
C2699      H2709   1.084       .  S
C2700      C2701   1.406       .  A
C2701      H2710   1.084       .  S
C2702      C2703   1.406       .  A
C2702      H2711   1.084       .  S
C2703      C2704   1.411       .  A
C2704      H2712   1.084       .  S
C2713      C2714   1.399       .  A
C2713      C2718   1.403       .  A
C2713      H2729   1.084       .  S
C2714      C2715   1.404       .  A
C2714      H2730   1.083       .  S
C2715      C2725   1.403       .  A
C2716      C2722   1.412       .  A
C2716      C2717   1.414       .  A
C2717      C2719   1.410       .  A
C2718      C2726   1.402       .  A
C2719      C2728   1.400       .  A
C2719      C2720   1.403       .  A
C2720      C2721   1.397       .  A
C2720      H2731   1.084       .  S
C2721      C2722   1.403       .  A
C2721      H2732   1.083       .  S
C2722      C2723   1.402       .  A
C2723      H2733   1.084       .  S
C2724      C2725   1.406   1_545  A
C2725      H2734   1.084       .  S
C2726      C2727   1.406   1_565  A
C2726      H2735   1.085       .  S
C2728      H2736   1.084       .  S
C2737      C2738   1.396       .  A
C2737      C2742   1.402       .  A
C2737      H2753   1.084       .  S
C2738      C2739   1.402       .  A
C2738      H2754   1.084       .  S
C2739      C2749   1.399       .  A
C2740      C2746   1.412       .  A
C2741      C2742   1.411       .  A
C2742      C2750   1.400       .  A
C2743      C2752   1.411       .  A
C2743      C2744   1.405       .  A
C2744      C2745   1.404       .  A
C2744      H2755   1.083       .  S
C2745      C2746   1.405       .  A
C2745      H2756   1.083       .  S
C2746      C2747   1.412       .  A
C2747      C2748   1.410       .  A
C2747      H2757   1.084       .  S
C2749      H2758   1.084       .  S
C2750      H2759   1.084       .  S
C2751      C2752   1.411       .  A
C2752      H2760   1.084       .  S
C2761      C2762   1.398       .  A
C2761      C2766   1.403       .  A
C2761      H2777   1.084       .  S
C2762      C2763   1.403       .  A
C2762      H2778   1.083       .  S
C2763      C2773   1.403       .  A
C2764      C2765   1.411       .  A
C2766      C2774   1.400       .  A
C2767      C2776   1.399       .  A
C2767      C2768   1.403   1_455  A
C2768      C2769   1.396       .  A
C2768      H2779   1.084       .  S
C2769      C2770   1.402   1_655  A
C2769      H2780   1.084       .  S
C2770      C2771   1.400   1_455  A
C2771      H2781   1.084       .  S
C2773      H2782   1.084       .  S
C2774      H2783   1.085       .  S
C2776      H2784   1.085   1_455  S
C2785      C2786   1.402       .  A
C2785      C2790   1.404       .  A
C2785      H2801   1.083       .  S
C2786      C2787   1.404       .  A
C2786      H2802   1.083       .  S
C2787      C2797   1.410       .  A
C2787      C2788   1.412       .  A
C2788      C2794   1.411       .  A
C2788      C2789   1.416       .  A
C2789      C2791   1.411       .  A
C2789      C2790   1.412       .  A
C2790      C2798   1.409       .  A
C2791      C2800   1.405       .  A
C2791      C2792   1.404       .  A
C2792      C2793   1.399       .  A
C2792      H2803   1.084       .  S
C2793      C2794   1.404       .  A
C2793      H2804   1.084       .  S
C2794      C2795   1.404       .  A
C2795      C2796   1.409       .  A
C2795      H2805   1.084       .  S
C2796      C2797   1.409       .  A
C2797      H2806   1.084       .  S
C2798      C2799   1.409       .  A
C2798      H2807   1.084       .  S
C2799      C2800   1.409       .  A
C2800      H2808   1.084       .  S
C2809      C2810   1.403       .  A
C2809      C2814   1.405       .  A
C2809      H2825   1.083       .  S
C2810      C2811   1.406       .  A
C2810      H2826   1.084       .  S
C2811      C2821   1.410       .  A
C2812      C2818   1.412       .  A
C2812      C2813   1.415       .  A
C2813      C2815   1.410       .  A
C2814      C2822   1.409       .  A
C2815      C2824   1.403       .  A
C2815      C2816   1.404       .  A
C2816      C2817   1.399       .  A
C2816      H2827   1.084       .  S
C2817      C2818   1.403       .  A
C2817      H2828   1.084       .  S
C2818      C2819   1.405       .  A
C2819      H2829   1.084       .  S
C2820      C2821   1.410       .  A
C2821      H2830   1.084       .  S
C2822      C2823   1.410       .  A
C2822      H2831   1.084       .  S
C2824      H2832   1.084       .  S
C2833      C2834   1.397       .  A
C2833      C2838   1.403       .  A
C2833      H2849   1.084       .  S
C2834      C2835   1.403       .  A
C2834      H2850   1.084       .  S
C2835      C2845   1.403       .  A
C2836      C2842   1.411       .  A
C2837      C2838   1.410       .  A
C2838      C2846   1.401       .  A
C2839      C2848   1.410       .  A
C2839      C2840   1.405       .  A
C2840      C2841   1.402       .  A
C2840      H2851   1.083       .  S
C2841      C2842   1.406       .  A
C2841      H2852   1.084       .  S
C2842      C2843   1.408       .  A
C2843      H2853   1.084       .  S
C2844      C2845   1.406       .  A
C2845      H2854   1.084       .  S
C2846      H2855   1.084       .  S
C2847      C2848   1.409       .  A
C2848      H2856   1.084       .  S
C2857      C2858   1.400       .  A
C2857      C2862   1.404       .  A
C2857      H2873   1.084       .  S
C2858      C2859   1.404       .  A
C2858      H2874   1.083       .  S
C2859      C2869   1.404       .  A
C2860      C2861   1.415       .  A
C2862      C2870   1.405       .  A
C2863      C2872   1.404       .  A
C2863      C2864   1.404       .  A
C2864      C2865   1.399       .  A
C2864      H2875   1.084       .  S
C2865      C2866   1.404       .  A
C2865      H2876   1.084       .  S
C2866      C2867   1.404       .  A
C2867      H2877   1.084       .  S
C2869      H2878   1.084       .  S
C2870      H2879   1.084       .  S
C2872      H2880   1.084       .  S
