geometry optimzed in LAMMPS
_audit_creation_date              2020-11-30 
_audit_creation_method            'lammps2cif' 
_symmetry_space_group_name_H-M    'P1' 
_symmetry_Int_Tables_number       1 
_symmetry_cell_setting            triclinic 
loop_ 
_symmetry_equiv_pos_as_xyz 
  x,y,z 
_cell_length_a                    29.714364 
_cell_length_b                    30.608120925273063 
_cell_length_c                    56.11155866639435 
_cell_angle_alpha                 90.02461039302219 
_cell_angle_beta                  89.99528108688978 
_cell_angle_gamma                 90.9091357290131 
loop_ 
_atom_site_label 
_atom_site_type_symbol 
_atom_site_fract_x 
_atom_site_fract_y 
_atom_site_fract_z 
_atom_site_charge 
C1          C  0.50418401  0.44538036  0.76628642     0.86600
C2          C  0.46260612  0.45105750  0.75031229    -0.53600
C3          C  0.46140939  0.98998137  0.73830231     0.09500
C4          C  0.50363330  0.01909326  0.74254835     0.20500
C5          C  0.04374849  0.45119640  0.74880349    -0.54400
C6          C  0.04363193  0.98959824  0.73634207     0.09600
C7          C  0.50610107  0.48628029  0.78203697    -0.53900
C8          C  0.00590278  0.02467456  0.76972742     0.10200
H9          H  0.43689854  0.42577920  0.74826616     0.14700
H10         H  0.50360952  0.05063556  0.73279529     0.00500
H11         H  0.06948095  0.42710630  0.74591089     0.15000
H12         H  0.50727661  0.48501951  0.80138064     0.14800
O13         O  0.21251070  0.50374784  0.61353826    -0.74300
O14         O  0.29950411  0.49145042  0.66315140    -0.74300
O15         O  0.20831855  0.49037651  0.66090594    -0.74400
O16         O  0.30294257  0.50485630  0.61557698    -0.74400
O17         O  0.30246986  0.07698380  0.62066312    -0.74400
O18         O  0.20828925  0.06211558  0.66742987    -0.74400
O19         O  0.30082534  0.06369763  0.66846158    -0.74300
O20         O  0.21115385  0.07559887  0.61948015    -0.74400
Ni21       Ni  0.25586898  0.49514598  0.63816430     1.25400
Ni22       Ni  0.25566264  0.07223107  0.64434040     1.25400
C23         C  0.19751274  0.04147561  0.60813849     0.87900
C24         C  0.31531553  0.02557626  0.67352232     0.87800
C25         C  0.19187171  0.02370801  0.67134442     0.87800
C26         C  0.31775171  0.04309167  0.61014073     0.88000
O27         O  0.20900845  0.49040124  0.33782340    -0.74300
O28         O  0.30150443  0.50355563  0.38436331    -0.74300
O29         O  0.21075518  0.50331938  0.38521849    -0.74400
O30         O  0.30005342  0.49100142  0.33672436    -0.74400
O31         O  0.30173487  0.06335120  0.33165014    -0.74400
O32         O  0.20994945  0.07522111  0.37920876    -0.74400
O33         O  0.30120565  0.07580452  0.37957178    -0.74300
O34         O  0.20941201  0.06219411  0.33141037    -0.74400
Ni35       Ni  0.25534646  0.49457932  0.36117551     1.25400
Ni36       Ni  0.25564260  0.07177086  0.35516323     1.25400
C37         C  0.19306950  0.02385050  0.32726208     0.87900
C38         C  0.31629806  0.04167804  0.38997111     0.87800
C39         C  0.19549599  0.04118322  0.39025678     0.87800
C40         C  0.31613930  0.02525210  0.32656322     0.88000
O41         O  0.02816211  0.02883173  0.97642057    -0.74300
O42         O  0.02505310  0.44362628  0.02603984    -0.74300
O43         O  0.02780944  0.44036777  0.97795328    -0.74400
O44         O  0.02523514  0.03170568  0.02441989    -0.74400
O45         O  0.45031458  0.03060393  0.02340226    -0.74400
O46         O  0.45290241  0.43902874  0.97684006    -0.74400
O47         O  0.45013675  0.44220064  0.02503921    -0.74300
O48         O  0.45326632  0.02776884  0.97520965    -0.74400
Ni49       Ni  0.02918385  0.48614917  0.00123368     1.25400
Ni50       Ni  0.44895278  0.48486618  0.00004963     1.25400
C51         C  0.49123161  0.04283254  0.96775066     0.87900
C52         C  0.48727873  0.42884248  0.03381264     0.87800
C53         C  0.49080005  0.42445484  0.96971816     0.87800
C54         C  0.48740645  0.04623340  0.03165814     0.88000
O55         O  0.02744776  0.19392511  0.11291291    -0.74300
O56         O  0.03034203  0.28097673  0.16155597    -0.74300
O57         O  0.03246076  0.19286001  0.16090244    -0.74400
O58         O  0.02563552  0.28178188  0.11370717    -0.74400
O59         O  0.45074191  0.27870475  0.11512203    -0.74400
O60         O  0.45761905  0.19080192  0.16377087    -0.74400
O61         O  0.45538390  0.27949421  0.16320481    -0.74300
O62         O  0.45269251  0.19027394  0.11528836    -0.74400
Ni63       Ni  0.03155814  0.23744053  0.13723366     1.25400
Ni64       Ni  0.45135668  0.23463188  0.13946347     1.25400
C65         C  0.48968260  0.17794299  0.10584042     0.87900
C66         C  0.49342057  0.29520242  0.17010399     0.87800
C67         C  0.49636266  0.17703669  0.17012118     0.87800
C68         C  0.48729985  0.29502568  0.10655720     0.88000
C69         C  0.50257599  0.44601877  0.23339260     0.86600
C70         C  0.04325745  0.45179802  0.25014874    -0.53600
C71         C  0.04403035  0.99013136  0.26267032     0.09500
C72         C  0.50396614  0.01985113  0.25701389     0.20500
C73         C  0.46179926  0.45223997  0.24979866    -0.54400
C74         C  0.46193910  0.99100667  0.26193365     0.09600
C75         C  0.50410771  0.48665454  0.21757271    -0.53900
C76         C  0.50488886  0.02513559  0.22977423     0.10200
H77         H  0.06951478  0.42811111  0.25239500     0.14700
H78         H  0.00451193  0.05148626  0.26668936     0.00500
H79         H  0.43506506  0.42787071  0.25166480     0.15000
H80         H  0.00412963  0.48512843  0.19821921     0.14800
O81         O  0.46408448  0.27939419  0.83799593    -0.74300
O82         O  0.46181933  0.18970688  0.88548056    -0.74300
O83         O  0.46072062  0.27787790  0.88632650    -0.74400
O84         O  0.46561535  0.19067357  0.83716381    -0.74400
O85         O  0.04045061  0.19238042  0.83908845    -0.74400
O86         O  0.03560072  0.28024880  0.88748774    -0.74400
O87         O  0.03665231  0.19209211  0.88733442    -0.74300
O88         O  0.03900088  0.28096006  0.83918910    -0.74400
Ni89       Ni  0.46039544  0.23434326  0.86163208     1.25400
Ni90       Ni  0.04056702  0.23651790  0.86328221     1.25400
C91         C  0.00188426  0.29521412  0.83080551     0.87900
C92         C  0.99876205  0.17639514  0.89449852     0.87800
C93         C  0.99749919  0.29318674  0.89520531     0.87800
C94         C  0.00392755  0.17663745  0.83023494     0.88000
O95         O  0.46065118  0.51793374  0.52404250    -0.74300
O96         O  0.04937474  0.51693386  0.47533292    -0.74300
O97         O  0.05091787  0.51776252  0.52335696    -0.74400
O98         O  0.45927703  0.51732389  0.47585617    -0.74400
O99         O  0.45967679  0.09010002  0.47562875    -0.74400
O100        O  0.05317481  0.09049846  0.52328103    -0.74400
O101        O  0.05100288  0.08966257  0.47446077    -0.74300
O102        O  0.46179549  0.09065608  0.52450480    -0.74400
Ni103      Ni  0.50496469  0.51509235  0.49967493     1.25400
Ni104      Ni  0.50643793  0.09298936  0.49946125     1.25400
C105        C  0.44681223  0.05400829  0.53264404     0.87900
C106        C  0.06468422  0.05275206  0.46659237     0.87800
C107        C  0.06705853  0.05390195  0.53139500     0.87800
C108        C  0.44490399  0.05341274  0.46746419     0.87800
C109        C  0.45804633  0.35884519  0.19000725    -0.21200
C110        C  0.49488507  0.33113224  0.18761804    -0.09200
C111        C  0.03398300  0.33985207  0.20095220     0.29600
C112        C  0.03627041  0.37583283  0.21614993    -0.21200
C113        C  0.49970531  0.40434534  0.21845456    -0.09200
C114        C  0.46053419  0.39534079  0.20491564     0.29600
F115        F  0.42491608  0.42256619  0.20557267    -0.19800
H116        H  0.42776441  0.35322929  0.17961343     0.18000
H117        H  0.06787031  0.38147012  0.22516348     0.18000
F118        F  0.07045451  0.31388439  0.19914972    -0.19800
C119        C  0.47034850  0.09667601  0.22003442    -0.21200
C120        C  0.50573046  0.06734942  0.21718682    -0.09200
C121        C  0.03932803  0.07607175  0.20021097     0.29600
C122        C  0.03673232  0.11285124  0.18571185    -0.21200
C123        C  0.50008930  0.14108337  0.18749149    -0.09200
C124        C  0.46717314  0.13320050  0.20510114     0.29600
F125        F  0.43187638  0.16039956  0.20771079    -0.19800
H126        H  0.44412794  0.09013373  0.23302623     0.18000
H127        H  0.06253775  0.11820116  0.17234402     0.18000
F128        F  0.07404980  0.04828279  0.19722752    -0.19800
C129        C  0.45560258  0.12474397  0.92076298    -0.21200
C130        C  0.99727430  0.14254286  0.91342701    -0.09200
C131        C  0.03679680  0.12769958  0.92443938     0.29600
C132        C  0.03443550  0.09528197  0.94194971    -0.21200
C133        C  0.49278349  0.07711299  0.94907001    -0.09200
C134        C  0.45322230  0.09254534  0.93837917     0.29600
F135        F  0.41209407  0.07663676  0.94481594    -0.19800
H136        H  0.42453897  0.13567683  0.91282304     0.18000
H137        H  0.06546626  0.08452477  0.95000190     0.18000
F138        F  0.07783349  0.14445391  0.91846191    -0.19800
C139        C  0.03349154  0.37825848  0.94108860    -0.21200
C140        C  0.49217607  0.38937584  0.95145743    -0.09200
C141        C  0.45277718  0.36735945  0.94374617     0.29600
C142        C  0.45479430  0.33621649  0.92551738    -0.21200
C143        C  0.99601625  0.32594355  0.91472668    -0.09200
C144        C  0.03556396  0.34698460  0.92300394     0.29600
F145        F  0.07636744  0.33801691  0.91346198    -0.19800
H146        H  0.06446539  0.39430599  0.94671641     0.18000
H147        H  0.42388961  0.32006357  0.91987374     0.18000
F148        F  0.41224459  0.37565367  0.95379681    -0.19800
C149        C  0.44631771  0.37420506  0.05940029    -0.21200
C150        C  0.48676039  0.39562200  0.05297876    -0.09200
C151        C  0.02673842  0.38431066  0.06477082     0.29600
C152        C  0.02623529  0.35178275  0.08210336    -0.21200
C153        C  0.48604633  0.32983609  0.08830065    -0.09200
C154        C  0.44582529  0.34160885  0.07688274     0.29600
F155        F  0.40617418  0.32127216  0.08222449    -0.19800
H156        H  0.41503142  0.38224809  0.05066627     0.18000
H157        H  0.05766709  0.34388205  0.09073661     0.18000
F158        F  0.06654240  0.40464467  0.05972832    -0.19800
C159        C  0.02774804  0.10130417  0.05688816    -0.21200
C160        C  0.48700943  0.08115894  0.04995857    -0.09200
C161        C  0.44684503  0.09417785  0.06106066     0.29600
C162        C  0.44794929  0.12566232  0.07914135    -0.21200
C163        C  0.48889591  0.14507873  0.08641533    -0.09200
C164        C  0.02882833  0.13295670  0.07477288     0.29600
F165        F  0.06915272  0.15155609  0.08054041    -0.19800
H166        H  0.05914067  0.09249085  0.04849261     0.18000
H167        H  0.41661902  0.13461405  0.08755256     0.18000
F168        F  0.40651579  0.07617232  0.05479528    -0.19800
C169        C  0.35610677  0.08514307  0.42180283    -0.21200
C170        C  0.35058682  0.04583115  0.40906453    -0.09200
C171        C  0.37676672  0.00977518  0.41550738     0.29600
C172        C  0.40689043  0.01281790  0.43450531    -0.21200
C173        C  0.41202797  0.05178600  0.44755640    -0.09200
C174        C  0.38647658  0.08819141  0.44090659     0.29600
F175        F  0.38993872  0.12635087  0.45313737    -0.19800
H176        H  0.33617717  0.11326726  0.41732292     0.18000
H177        H  0.42659091  0.98446401  0.43885476     0.18000
F178        F  0.37378515  0.97151131  0.40330862    -0.19800
C179        C  0.15022068  0.00828413  0.42314203    -0.21200
C180        C  0.16131761  0.04515523  0.40937277    -0.09200
C181        C  0.14006415  0.08498066  0.41447608     0.29600
C182        C  0.10899586  0.08757801  0.43323149    -0.21200
C183        C  0.09827188  0.05057593  0.44707329    -0.09200
C184        C  0.11922043  0.01076112  0.44167613     0.29600
F185        F  0.11035805  0.97396027  0.45444890    -0.19800
H186        H  0.16588329  0.97718665  0.41974632     0.18000
H187        H  0.09300148  0.11846042  0.43675552     0.18000
F188        F  0.14887211  0.12131553  0.40131196    -0.19800
C189        C  0.39675839  0.03245847  0.31542622    -0.21200
C190        C  0.35257862  0.02047477  0.30916767    -0.09200
C191        C  0.34415542  0.00095572  0.28699883     0.29600
C192        C  0.37974637  0.99283873  0.27142881    -0.21200
C193        C  0.42437816  0.00339913  0.27790141    -0.09200
C194        C  0.43256753  0.02380173  0.29999358     0.29600
F195        F  0.47519623  0.03298875  0.30732284    -0.19800
H196        H  0.40366714  0.04697636  0.33268216     0.18000
H197        H  0.37244257  0.97775687  0.25437060     0.18000
F198        F  0.30156381  0.98946959  0.28052569    -0.19800
C199        C  0.09985764  0.04242917  0.28149954    -0.21200
C200        C  0.08024243  0.00041134  0.28018895    -0.09200
C201        C  0.09701334  0.96729589  0.29495536     0.29600
C202        C  0.13372848  0.97548972  0.30976230    -0.21200
C203        C  0.15442528  0.01705866  0.31075999    -0.09200
C204        C  0.13663802  0.05084752  0.29668445     0.29600
F205        F  0.15496552  0.09171704  0.29730219    -0.19800
H206        H  0.08748060  0.06844350  0.27032178     0.18000
H207        H  0.14562318  0.94894871  0.32072125     0.18000
F208        F  0.07744695  0.92691511  0.29548972    -0.19800
C209        C  0.14924695  0.08645622  0.58091480    -0.21200
C210        C  0.16437221  0.04530585  0.58841179    -0.09200
C211        C  0.14783940  0.00772989  0.57660078     0.29600
C212        C  0.11703874  0.01133286  0.55802010    -0.21200
C213        C  0.10152508  0.05225464  0.55057365    -0.09200
C214        C  0.11817539  0.09003494  0.56218591     0.29600
F215        F  0.10424217  0.13034519  0.55571963    -0.19800
H216        H  0.16142667  0.11598386  0.58955980     0.18000
H217        H  0.10507076  0.98155852  0.54954283     0.18000
F218        F  0.16108596  0.46711151  0.58296131    -0.19800
C219        C  0.36136417  0.01029064  0.57707435    -0.21200
C220        C  0.35182421  0.04726983  0.59087298    -0.09200
C221        C  0.37386306  0.08714065  0.58533989     0.29600
C222        C  0.40437557  0.08956346  0.56622400    -0.21200
C223        C  0.41355493  0.05235466  0.55240621    -0.09200
C224        C  0.39157231  0.01261659  0.55816433     0.29600
F225        F  0.39862999  0.47567945  0.54539112    -0.19800
H226        H  0.34491871  0.47917213  0.58068300     0.18000
H227        H  0.42114114  0.12043516  0.56240022     0.18000
F228        F  0.36635821  0.12361062  0.59842401    -0.19800
C229        C  0.46669049  0.12711456  0.80024361    -0.21200
C230        C  0.00595461  0.14089210  0.81233258    -0.09200
C231        C  0.04630315  0.11836545  0.80811532     0.29600
C232        C  0.04642310  0.08161214  0.79330366    -0.21200
C233        C  0.00682490  0.06716953  0.78209518    -0.09200
C234        C  0.46713889  0.09067315  0.78515686     0.29600
F235        F  0.42833637  0.07696058  0.77457741    -0.19800
H236        H  0.43524748  0.14385800  0.80294185     0.18000
H237        H  0.07722970  0.06353907  0.79111042     0.18000
F238        F  0.08527266  0.13043894  0.81908343    -0.19800
C239        C  0.04248151  0.37954681  0.78562249    -0.21200
C240        C  0.00319664  0.40366838  0.78137714    -0.09200
C241        C  0.46363089  0.39116140  0.79376908     0.29600
C242        C  0.46318015  0.35498460  0.80895534    -0.21200
C243        C  0.00240902  0.33118310  0.81307944    -0.09200
C244        C  0.04213391  0.34377431  0.80112100     0.29600
F245        F  0.08105009  0.32204521  0.80462775    -0.19800
H246        H  0.07444671  0.38896414  0.77789950     0.18000
H247        H  0.43223591  0.34662195  0.81822329     0.18000
F248        F  0.42546242  0.41469387  0.79188568    -0.19800
C249        C  0.10075438  0.04134540  0.71838714    -0.21200
C250        C  0.07895691  0.00029297  0.71842583    -0.09200
C251        C  0.09315774  0.96825386  0.70224621     0.29600
C252        C  0.12962078  0.97645540  0.68716872    -0.21200
C253        C  0.15273106  0.01691444  0.68756244    -0.09200
C254        C  0.13739855  0.04971306  0.70311511     0.29600
F255        F  0.15840768  0.08935500  0.70407038    -0.19800
H256        H  0.09037411  0.06643794  0.73075113     0.18000
H257        H  0.13967916  0.95083134  0.67506176     0.18000
F258        F  0.07151532  0.92892627  0.70083957    -0.19800
C259        C  0.43092582  0.02625400  0.70163292    -0.21200
C260        C  0.42306360  0.00215881  0.72260007    -0.09200
C261        C  0.37846220  0.48898616  0.72807612     0.29600
C262        C  0.34336307  0.49746853  0.71221542    -0.21200
C263        C  0.35161853  0.02051345  0.69108925    -0.09200
C264        C  0.39547646  0.03556616  0.68604629     0.29600
F265        F  0.40436181  0.05732529  0.66545809    -0.19800
H266        H  0.46470069  0.03662448  0.69684423     0.18000
H267        H  0.30962938  0.48596874  0.71639728     0.18000
F268        F  0.36846050  0.46838018  0.74886824    -0.19800
C269        C  0.50419890  0.94542776  0.76629789     0.86600
C270        C  0.46262710  0.95107085  0.75031508    -0.53600
C271        C  0.46139850  0.48998120  0.73831294     0.09500
C272        C  0.50363236  0.51907465  0.74256302     0.20500
C273        C  0.04377068  0.95123853  0.74881883    -0.54400
C274        C  0.04361902  0.48957240  0.73634009     0.09600
C275        C  0.50608601  0.98634725  0.78203479    -0.53900
C276        C  0.00592030  0.52462444  0.76974504     0.10200
H277        H  0.43693069  0.92578024  0.74827600     0.14700
H278        H  0.50361363  0.55062697  0.73281933     0.00500
H279        H  0.06951227  0.92715440  0.74593484     0.15000
H280        H  0.50724027  0.98511236  0.80137930     0.14800
O281        O  0.21249432  0.00374539  0.61353054    -0.74300
O282        O  0.29949662  0.99142736  0.66313724    -0.74300
O283        O  0.20831135  0.99036358  0.66089708    -0.74400
O284        O  0.30292728  0.00484546  0.61556362    -0.74400
O285        O  0.30247774  0.57699560  0.62067116    -0.74400
O286        O  0.20828547  0.56212935  0.66743491    -0.74400
O287        O  0.30082340  0.56372169  0.66847170    -0.74300
O288        O  0.21116164  0.57560216  0.61948353    -0.74400
Ni289      Ni  0.25585714  0.99513343  0.63815288     1.25400
Ni290      Ni  0.25566489  0.57224454  0.64434697     1.25400
C291        C  0.19752781  0.54147572  0.60814230     0.87900
C292        C  0.31531717  0.52560301  0.67353530     0.87800
C293        C  0.19187107  0.52372039  0.67135030     0.87800
C294        C  0.31776359  0.54310218  0.61015118     0.88000
O295        O  0.20899048  0.99041416  0.33782364    -0.74300
O296        O  0.30149429  0.00355783  0.38435983    -0.74300
O297        O  0.21074595  0.00333292  0.38521809    -0.74400
O298        O  0.30003450  0.99100275  0.33672131    -0.74400
O299        O  0.30174502  0.56334973  0.33165309    -0.74400
O300        O  0.20995131  0.57520747  0.37920963    -0.74400
O301        O  0.30120918  0.57580222  0.37957601    -0.74300
O302        O  0.20942170  0.56218126  0.33141092    -0.74400
Ni303      Ni  0.25533202  0.99458663  0.36117383     1.25400
Ni304      Ni  0.25564867  0.57176337  0.35516546     1.25400
C305        C  0.19308447  0.52383586  0.32726154     0.87900
C306        C  0.31630418  0.54167680  0.38997549     0.87800
C307        C  0.19549984  0.54116778  0.39025692     0.87800
C308        C  0.31615451  0.52525235  0.32656608     0.88000
O309        O  0.02814709  0.52885083  0.97641321    -0.74300
O310        O  0.02505448  0.94359593  0.02604167    -0.74300
O311        O  0.02781384  0.94034551  0.97795414    -0.74400
O312        O  0.02522537  0.53173699  0.02441217    -0.74400
O313        O  0.45030517  0.53063117  0.02339625    -0.74400
O314        O  0.45290695  0.93901422  0.97683959    -0.74400
O315        O  0.45013781  0.94217569  0.02503873    -0.74300
O316        O  0.45325138  0.52778221  0.97520297    -0.74400
Ni317      Ni  0.02919187  0.98612275  0.00123795     1.25400
Ni318      Ni  0.44896061  0.98484617  0.00005222     1.25400
C319        C  0.49121544  0.54284459  0.96774149     0.87900
C320        C  0.48727776  0.92881731  0.03381413     0.87800
C321        C  0.49080303  0.92443741  0.96971758     0.87800
C322        C  0.48739702  0.54626515  0.03165003     0.88000
O323        O  0.02744809  0.69393470  0.11291640    -0.74300
O324        O  0.03034484  0.78097197  0.16156763    -0.74300
O325        O  0.03247073  0.69285563  0.16090564    -0.74400
O326        O  0.02563067  0.78178932  0.11371968    -0.74400
O327        O  0.45073740  0.77870581  0.11513617    -0.74400
O328        O  0.45762956  0.69079397  0.16377932    -0.74400
O329        O  0.45538739  0.77948552  0.16321889    -0.74300
O330        O  0.45269393  0.69027714  0.11529610    -0.74400
Ni331      Ni  0.03156019  0.73744252  0.13724142     1.25400
Ni332      Ni  0.45135933  0.73462834  0.13947488     1.25400
C333        C  0.48968280  0.67795369  0.10584378     0.87900
C334        C  0.49342395  0.79519529  0.17011721     0.87800
C335        C  0.49637575  0.67702951  0.17012565     0.87800
C336        C  0.48729353  0.79503029  0.10657122     0.88000
C337        C  0.50257122  0.94602944  0.23339374     0.86600
C338        C  0.04325405  0.95181626  0.25014802    -0.53600
C339        C  0.04403942  0.49011205  0.26267190     0.09500
C340        C  0.50398133  0.51983906  0.25701404     0.20500
C341        C  0.46179716  0.95224358  0.24980232    -0.54400
C342        C  0.46194772  0.49100188  0.26193140     0.09600
C343        C  0.50409192  0.98666501  0.21757282    -0.53900
C344        C  0.50491069  0.52512495  0.22977416     0.10200
H345        H  0.06951231  0.92813233  0.25239588     0.14700
H346        H  0.00453036  0.55147311  0.26669063     0.00500
H347        H  0.43506939  0.92786845  0.25167128     0.15000
H348        H  0.00411303  0.98513850  0.19821945     0.14800
O349        O  0.46409721  0.77940256  0.83798254    -0.74300
O350        O  0.46181652  0.68969759  0.88545709    -0.74300
O351        O  0.46071256  0.77787154  0.88631284    -0.74400
O352        O  0.46564266  0.69067358  0.83713986    -0.74400
O353        O  0.04047819  0.69238384  0.83908958    -0.74400
O354        O  0.03559184  0.78025523  0.88747915    -0.74400
O355        O  0.03664774  0.69210188  0.88732912    -0.74300
O356        O  0.03901348  0.78096946  0.83918358    -0.74400
Ni357      Ni  0.46040175  0.73434147  0.86161247     1.25400
Ni358      Ni  0.04057280  0.73652599  0.86327713     1.25400
C359        C  0.00189907  0.79523112  0.83080059     0.87900
C360        C  0.99875537  0.67639353  0.89448293     0.87800
C361        C  0.99748744  0.79318521  0.89519499     0.87800
C362        C  0.00396581  0.67662816  0.83023157     0.88000
O363        O  0.46064263  0.01794332  0.52403516    -0.74300
O364        O  0.04936963  0.01695212  0.47532924    -0.74300
O365        O  0.05090689  0.01777867  0.52335247    -0.74400
O366        O  0.45927342  0.01733468  0.47584975    -0.74400
O367        O  0.45968484  0.59008926  0.47563492    -0.74400
O368        O  0.05318832  0.59048232  0.52328366    -0.74400
O369        O  0.05101035  0.58964439  0.47446347    -0.74300
O370        O  0.46180913  0.59064644  0.52451075    -0.74400
Ni371      Ni  0.50495792  0.01510624  0.49966938     1.25400
Ni372      Ni  0.50644899  0.59297536  0.49946564     1.25400
C373        C  0.44682342  0.55400032  0.53265103     0.87900
C374        C  0.06468959  0.55273310  0.46659500     0.87800
C375        C  0.06707271  0.55388611  0.53139765     0.87800
C376        C  0.44490896  0.55340297  0.46747078     0.87800
C377        C  0.45804092  0.85882918  0.19002420    -0.21200
C378        C  0.49488769  0.83112736  0.18763018    -0.09200
C379        C  0.03399221  0.83986457  0.20095567     0.29600
C380        C  0.03627904  0.87585214  0.21614897    -0.21200
C381        C  0.49970512  0.90435280  0.21845824    -0.09200
C382        C  0.46052726  0.89533094  0.20492806     0.29600
F383        F  0.42489954  0.92254426  0.20558949    -0.19800
H384        H  0.42775326  0.85320040  0.17963715     0.18000
H385        H  0.06788265  0.88150489  0.22515389     0.18000
F386        F  0.07047212  0.81390910  0.19914809    -0.19800
C387        C  0.47040997  0.59669529  0.22005689    -0.21200
C388        C  0.50575896  0.56733850  0.21718577    -0.09200
C389        C  0.03932289  0.57603265  0.20018678     0.29600
C390        C  0.03672293  0.61281207  0.18568835    -0.21200
C391        C  0.50010923  0.64107313  0.18749226    -0.09200
C392        C  0.46722976  0.63322040  0.20512435     0.29600
F393        F  0.43196555  0.66045149  0.20775745    -0.19800
H394        H  0.44421577  0.59017663  0.23306674     0.18000
H395        H  0.06249973  0.61814058  0.17230261     0.18000
F396        F  0.07401487  0.54821692  0.19718034    -0.19800
C397        C  0.45559047  0.62472593  0.92073646    -0.21200
C398        C  0.99726213  0.64253817  0.91340938    -0.09200
C399        C  0.03678152  0.62770670  0.92442947     0.29600
C400        C  0.03441776  0.59529348  0.94194154    -0.21200
C401        C  0.49276658  0.57711563  0.94905591    -0.09200
C402        C  0.45320784  0.59252990  0.93835435     0.29600
F403        F  0.41208063  0.57660610  0.94478223    -0.19800
H404        H  0.42452942  0.63564736  0.91278891     0.18000
H405        H  0.06544675  0.58454803  0.95000067     0.18000
F406        F  0.07781800  0.64446955  0.91845850    -0.19800
C407        C  0.03348737  0.87824122  0.94108536    -0.21200
C408        C  0.49217428  0.88936092  0.95145496    -0.09200
C409        C  0.45277268  0.86734907  0.94374292     0.29600
C410        C  0.45478469  0.83621106  0.92551095    -0.21200
C411        C  0.99600415  0.82593810  0.91471862    -0.09200
C412        C  0.03555510  0.84697204  0.92299831     0.29600
F413        F  0.07635850  0.83800142  0.91345694    -0.19800
H414        H  0.06446338  0.89428324  0.94671436     0.18000
H415        H  0.42387871  0.82006179  0.91986644     0.18000
F416        F  0.41224238  0.87564267  0.95379618    -0.19800
C417        C  0.44631860  0.87415994  0.05938912    -0.21200
C418        C  0.48675450  0.89560621  0.05298419    -0.09200
C419        C  0.02672192  0.88433673  0.06479855     0.29600
C420        C  0.02621741  0.85181739  0.08213544    -0.21200
C421        C  0.48603716  0.82983924  0.08831499    -0.09200
C422        C  0.44582463  0.84157251  0.07687630     0.29600
F423        F  0.40618302  0.82120202  0.08220051    -0.19800
H424        H  0.41504058  0.88217155  0.05063761     0.18000
H425        H  0.05764111  0.84394797  0.09078600     0.18000
F426        F  0.06651566  0.90470616  0.05977478    -0.19800
C427        C  0.02774416  0.60131922  0.05688838    -0.21200
C428        C  0.48700152  0.58119374  0.04994908    -0.09200
C429        C  0.44683543  0.59423087  0.06104271     0.29600
C430        C  0.44794241  0.62570792  0.07912732    -0.21200
C431        C  0.48889356  0.64510005  0.08641315    -0.09200
C432        C  0.02882733  0.63296482  0.07477672     0.29600
F433        F  0.06915686  0.65154180  0.08055505    -0.19800
H434        H  0.05913880  0.59249310  0.04849915     0.18000
H435        H  0.41661042  0.63467280  0.08753229     0.18000
F436        F  0.40650144  0.57625044  0.05476522    -0.19800
C437        C  0.35610821  0.58513908  0.42181138    -0.21200
C438        C  0.35059234  0.54583022  0.40906969    -0.09200
C439        C  0.37677585  0.50977508  0.41551000     0.29600
C440        C  0.40689819  0.51281467  0.43450869    -0.21200
C441        C  0.41203195  0.55177918  0.44756308    -0.09200
C442        C  0.38647746  0.58818447  0.44091590     0.29600
F443        F  0.38993607  0.62634065  0.45315000    -0.19800
H444        H  0.33617608  0.61326255  0.41733353     0.18000
H445        H  0.42660124  0.48446148  0.43885586     0.18000
F446        F  0.37379938  0.47151472  0.40330773    -0.19800
C447        C  0.15024173  0.50827071  0.42315044    -0.21200
C448        C  0.16131889  0.54513636  0.40937240    -0.09200
C449        C  0.14004471  0.58495482  0.41446711     0.29600
C450        C  0.10897828  0.58755211  0.43322350    -0.21200
C451        C  0.09827527  0.55055637  0.44707464    -0.09200
C452        C  0.11924233  0.51074745  0.44168545     0.29600
F453        F  0.11040032  0.47395351  0.45446778    -0.19800
H454        H  0.16592053  0.47717866  0.41976141     0.18000
H455        H  0.09296811  0.61842923  0.43674077     0.18000
F456        F  0.14882961  0.62128247  0.40129306    -0.19800
C457        C  0.39677770  0.53244024  0.31543121    -0.21200
C458        C  0.35259361  0.52047810  0.30916927    -0.09200
C459        C  0.34416486  0.50098043  0.28699524     0.29600
C460        C  0.37975421  0.49286015  0.27142428    -0.21200
C461        C  0.42438929  0.50339903  0.27790007    -0.09200
C462        C  0.43258447  0.52378297  0.29999675     0.29600
F463        F  0.47521614  0.53295021  0.30732810    -0.19800
H464        H  0.40369103  0.54694189  0.33269066     0.18000
H465        H  0.37244682  0.47779224  0.25436286     0.18000
F466        F  0.30156932  0.48951651  0.28051831    -0.19800
C467        C  0.09986529  0.54241029  0.28150244    -0.21200
C468        C  0.08025661  0.50038988  0.28018860    -0.09200
C469        C  0.09703793  0.46727199  0.29495028     0.29600
C470        C  0.13375467  0.47546743  0.30975617    -0.21200
C471        C  0.15444242  0.51704024  0.31075810    -0.09200
C472        C  0.13664652  0.55083011  0.29668652     0.29600
F473        F  0.15496528  0.59170299  0.29730800    -0.19800
H474        H  0.08748165  0.56842668  0.27032823     0.18000
H475        H  0.14565665  0.44892488  0.32071170     0.18000
F476        F  0.07747918  0.42688774  0.29548227    -0.19800
C477        C  0.14923830  0.58644676  0.58092631    -0.21200
C478        C  0.16439369  0.54530048  0.58841196    -0.09200
C479        C  0.14789484  0.50772503  0.57658730     0.29600
C480        C  0.11709206  0.51132433  0.55800686    -0.21200
C481        C  0.10154474  0.55224181  0.55057384    -0.09200
C482        C  0.11816617  0.59002176  0.56219761     0.29600
F483        F  0.10420031  0.63032794  0.55574446    -0.19800
H484        H  0.16139200  0.61597412  0.58958131     0.18000
H485        H  0.10514918  0.48155107  0.54951899     0.18000
F486        F  0.16099407  0.96711215  0.58298889    -0.19800
C487        C  0.36137651  0.51029382  0.57708642    -0.21200
C488        C  0.35183559  0.54727672  0.59088223    -0.09200
C489        C  0.37387183  0.58714668  0.58534454     0.29600
C490        C  0.40438454  0.58956427  0.56622826    -0.21200
C491        C  0.41356597  0.55235139  0.55241388    -0.09200
C492        C  0.39158370  0.51261491  0.55817555     0.29600
F493        F  0.39861939  0.97568432  0.54537729    -0.19800
H494        H  0.34490525  0.97916838  0.58066814     0.18000
H495        H  0.42114822  0.62043550  0.56240134     0.18000
F496        F  0.36636385  0.62362111  0.59842436    -0.19800
C497        C  0.46689579  0.62736109  0.80005464    -0.21200
C498        C  0.00602977  0.64085190  0.81235210    -0.09200
C499        C  0.04626698  0.61800902  0.80836892     0.29600
C500        C  0.04638426  0.58124527  0.79356799    -0.21200
C501        C  0.00690809  0.56710666  0.78213046    -0.09200
C502        C  0.46735408  0.59091508  0.78496774     0.29600
F503        F  0.42865963  0.57749247  0.77417453    -0.19800
H504        H  0.43554424  0.64434943  0.80258032     0.18000
H505        H  0.07708225  0.56293406  0.79155439     0.18000
F506        F  0.08509854  0.62977232  0.81956660    -0.19800
C507        C  0.04250469  0.87960493  0.78564253    -0.21200
C508        C  0.00322061  0.90372958  0.78140004    -0.09200
C509        C  0.46365614  0.89122256  0.79379274     0.29600
C510        C  0.46320225  0.85503429  0.80897152    -0.21200
C511        C  0.00242792  0.83122144  0.81308709    -0.09200
C512        C  0.04215473  0.84382232  0.80113380     0.29600
F513        F  0.08106987  0.82208960  0.80463668    -0.19800
H514        H  0.07447075  0.88902329  0.77792134     0.18000
H515        H  0.43225815  0.84666821  0.81823852     0.18000
F516        F  0.42549084  0.91476116  0.79191299    -0.19800
C517        C  0.10073962  0.54133522  0.71839098    -0.21200
C518        C  0.07894605  0.50027990  0.71842519    -0.09200
C519        C  0.09315258  0.46824998  0.70224127     0.29600
C520        C  0.12961754  0.47646107  0.68716633    -0.21200
C521        C  0.15272491  0.51692153  0.68756527    -0.09200
C522        C  0.13738512  0.54971309  0.70312038     0.29600
F523        F  0.15838866  0.58935747  0.70407960    -0.19800
H524        H  0.09035542  0.56642228  0.73075719     0.18000
H525        H  0.13967976  0.45084247  0.67505683     0.18000
F526        F  0.07151366  0.42892161  0.70082721    -0.19800
C527        C  0.43093087  0.52625139  0.70164065    -0.21200
C528        C  0.42305747  0.50218084  0.72261465    -0.09200
C529        C  0.37847389  0.98893049  0.72805353     0.29600
C530        C  0.34337389  0.99740527  0.71219202    -0.21200
C531        C  0.35161802  0.52054678  0.69110393    -0.09200
C532        C  0.39548440  0.53556668  0.68605281     0.29600
F533        F  0.40437966  0.55729323  0.66545558    -0.19800
H534        H  0.46471206  0.53659509  0.69684736     0.18000
H535        H  0.30964606  0.98588149  0.71636816     0.18000
F536        F  0.36847479  0.96830480  0.74884012    -0.19800
C537        C  0.00418448  0.44537949  0.76628636     0.86600
C538        C  0.96260599  0.45105850  0.75031287    -0.53600
C539        C  0.96141014  0.98998255  0.73830311     0.09500
C540        C  0.00363489  0.01909335  0.74254891     0.20500
C541        C  0.54374873  0.45119781  0.74880402    -0.54400
C542        C  0.54363129  0.98959900  0.73634217     0.09600
C543        C  0.00610373  0.48627873  0.78203735    -0.53900
C544        C  0.50590010  0.02467507  0.76972682     0.10200
H545        H  0.93689765  0.42578100  0.74826668     0.14700
H546        H  0.00361144  0.05063587  0.73279607     0.00500
H547        H  0.56948208  0.42710835  0.74591185     0.15000
H548        H  0.00728006  0.48501707  0.80138099     0.14800
O549        O  0.71251120  0.50374804  0.61353968    -0.74300
O550        O  0.79950503  0.49145251  0.66315288    -0.74300
O551        O  0.70831949  0.49037786  0.66090744    -0.74400
O552        O  0.80294312  0.50485705  0.61557830    -0.74400
O553        O  0.80247002  0.07698473  0.62066393    -0.74400
O554        O  0.70828956  0.06211694  0.66743083    -0.74400
O555        O  0.80082567  0.06369968  0.66846252    -0.74300
O556        O  0.71115403  0.07559923  0.61948103    -0.74400
Ni557      Ni  0.75586974  0.49514707  0.63816575     1.25400
Ni558      Ni  0.75566289  0.07223226  0.64434129     1.25400
C559        C  0.69751310  0.04147570  0.60813956     0.87900
C560        C  0.81531611  0.02557851  0.67352349     0.87800
C561        C  0.69187226  0.02370934  0.67134556     0.87800
C562        C  0.81775199  0.04309248  0.61014170     0.88000
O563        O  0.70900852  0.49040093  0.33782258    -0.74300
O564        O  0.80150473  0.50355491  0.38436228    -0.74300
O565        O  0.71075565  0.50331847  0.38521776    -0.74400
O566        O  0.80005347  0.49100150  0.33672326    -0.74400
O567        O  0.80173432  0.06335238  0.33164935    -0.74400
O568        O  0.70994959  0.07522081  0.37920835    -0.74400
O569        O  0.80120555  0.07580467  0.37957109    -0.74300
O570        O  0.70941153  0.06219463  0.33140989    -0.74400
Ni571      Ni  0.75534669  0.49457883  0.36117456     1.25400
Ni572      Ni  0.75564233  0.07177124  0.35516264     1.25400
C573        C  0.69306928  0.02385097  0.32726146     0.87900
C574        C  0.81629799  0.04167810  0.38997032     0.87800
C575        C  0.69549655  0.04118274  0.39025633     0.87800
C576        C  0.81613904  0.02525349  0.32656223     0.88000
O577        O  0.52816081  0.02883160  0.97642008    -0.74300
O578        O  0.52505270  0.44362537  0.02603900    -0.74300
O579        O  0.52780861  0.44036772  0.97795252    -0.74400
O580        O  0.52523432  0.03170483  0.02441940    -0.74400
O581        O  0.95031540  0.03060487  0.02340253    -0.74400
O582        O  0.95290328  0.43902925  0.97684054    -0.74400
O583        O  0.95013715  0.44220164  0.02503970    -0.74300
O584        O  0.95326763  0.02776932  0.97521002    -0.74400
Ni585      Ni  0.52918310  0.48614871  0.00123307     1.25400
Ni586      Ni  0.94895354  0.48486682  0.00004997     1.25400
C587        C  0.99123303  0.04283280  0.96775108     0.87900
C588        C  0.98727896  0.42884375  0.03381345     0.87800
C589        C  0.99080088  0.42445512  0.96971875     0.87800
C590        C  0.98740718  0.04623439  0.03165844     0.88000
O591        O  0.52744899  0.19392348  0.11291286    -0.74300
O592        O  0.53034406  0.28097698  0.16155501    -0.74300
O593        O  0.53246284  0.19286013  0.16090244    -0.74400
O594        O  0.52563677  0.28178024  0.11370618    -0.74400
O595        O  0.95074062  0.27870612  0.11512259    -0.74400
O596        O  0.95761696  0.19080170  0.16377062    -0.74400
O597        O  0.95538179  0.27949414  0.16320535    -0.74300
O598        O  0.95269125  0.19027528  0.11528811    -0.74400
Ni599      Ni  0.53155980  0.23743980  0.13723316     1.25400
Ni600      Ni  0.95135497  0.23463248  0.13946361     1.25400
C601        C  0.98968152  0.17794466  0.10584025     0.87900
C602        C  0.99341840  0.29520202  0.17010484     0.87800
C603        C  0.99636050  0.17703622  0.17012090     0.87800
C604        C  0.98729870  0.29502749  0.10655815     0.88000
C605        C  0.00257652  0.44601888  0.23339269     0.86600
C606        C  0.54325711  0.45179788  0.25014855    -0.53600
C607        C  0.54402995  0.99013144  0.26267009     0.09500
C608        C  0.00396691  0.01985140  0.25701385     0.20500
C609        C  0.96179951  0.45224057  0.24979847    -0.54400
C610        C  0.96193949  0.99100752  0.26193351     0.09600
C611        C  0.00410894  0.48665459  0.21757273    -0.53900
C612        C  0.00488986  0.02513544  0.22977416     0.10200
H613        H  0.56951355  0.42811109  0.25239500     0.14700
H614        H  0.50451109  0.05148588  0.26668950     0.00500
H615        H  0.93506476  0.42787172  0.25166431     0.15000
H616        H  0.50412834  0.48512843  0.19821920     0.14800
O617        O  0.96408532  0.27939354  0.83799605    -0.74300
O618        O  0.96182072  0.18970728  0.88548122    -0.74300
O619        O  0.96072155  0.27787834  0.88632668    -0.74400
O620        O  0.96561681  0.19067293  0.83716449    -0.74400
O621        O  0.54044915  0.19238052  0.83908772    -0.74400
O622        O  0.53559982  0.28024807  0.88748751    -0.74400
O623        O  0.53665093  0.19209135  0.88733375    -0.74300
O624        O  0.53900005  0.28096018  0.83918894    -0.74400
Ni625      Ni  0.96039659  0.23434316  0.86163249     1.25400
Ni626      Ni  0.54056589  0.23651754  0.86328177     1.25400
C627        C  0.50188353  0.29521473  0.83080550     0.87900
C628        C  0.49876062  0.17639451  0.89449783     0.87800
C629        C  0.49749835  0.29318612  0.89520510     0.87800
C630        C  0.50392596  0.17663804  0.83023410     0.88000
O631        O  0.96064985  0.51793369  0.52404277    -0.74300
O632        O  0.54937714  0.51693350  0.47533326    -0.74300
O633        O  0.55091919  0.51776194  0.52335736    -0.74400
O634        O  0.95927468  0.51732352  0.47585645    -0.74400
O635        O  0.95967422  0.09009998  0.47562885    -0.74400
O636        O  0.55317637  0.09049781  0.52328149    -0.74400
O637        O  0.55100548  0.08966206  0.47446122    -0.74300
O638        O  0.96179394  0.09065629  0.52450489    -0.74400
Ni639      Ni  0.00496285  0.51509247  0.49967489     1.25400
Ni640      Ni  0.00643582  0.09298969  0.49946107     1.25400
C641        C  0.94681103  0.05400849  0.53264429     0.87900
C642        C  0.56468681  0.05275152  0.46659285     0.87800
C643        C  0.56705977  0.05390124  0.53139556     0.87800
C644        C  0.94490149  0.05341260  0.46746439     0.87800
C645        C  0.95804618  0.35884741  0.19000643    -0.21200
C646        C  0.99488283  0.33113148  0.18761898    -0.09200
C647        C  0.53398668  0.33985595  0.20094952     0.29600
C648        C  0.53627345  0.37583652  0.21614753    -0.21200
C649        C  0.99970501  0.40434529  0.21845486    -0.09200
C650        C  0.96053495  0.39534325  0.20491456     0.29600
F651        F  0.92491896  0.42257138  0.20557014    -0.19800
H652        H  0.92776522  0.35323361  0.17961129     0.18000
H653        H  0.56787357  0.38147668  0.22515900     0.18000
F654        F  0.57046055  0.31389181  0.19914509    -0.19800
C655        C  0.97034645  0.09667391  0.22003345    -0.21200
C656        C  0.00573015  0.06734904  0.21718657    -0.09200
C657        C  0.53932797  0.07607098  0.20021081     0.29600
C658        C  0.53673315  0.11285070  0.18571182    -0.21200
C659        C  0.00008713  0.14108247  0.18749097    -0.09200
C660        C  0.96717018  0.13319811  0.20510002     0.29600
F661        F  0.93187182  0.16039544  0.20770899    -0.19800
H662        H  0.94412551  0.09013054  0.23302480     0.18000
H663        H  0.56253810  0.11819962  0.17234353     0.18000
F664        F  0.57404839  0.04828063  0.19722680    -0.19800
C665        C  0.95560413  0.12474412  0.92076337    -0.21200
C666        C  0.49727278  0.14254225  0.91342635    -0.09200
C667        C  0.53679530  0.12769874  0.92443861     0.29600
C668        C  0.53443397  0.09528131  0.94194902    -0.21200
C669        C  0.99278504  0.07711325  0.94907045    -0.09200
C670        C  0.95322389  0.09254530  0.93837943     0.29600
F671        F  0.91209569  0.07663621  0.94481591    -0.19800
H672        H  0.92454062  0.13567668  0.91282332     0.18000
H673        H  0.56546481  0.08452388  0.95000108     0.18000
F674        F  0.57783205  0.14445267  0.91846094    -0.19800
C675        C  0.53349022  0.37826197  0.94108609    -0.21200
C676        C  0.99217674  0.38937614  0.95145794    -0.09200
C677        C  0.95277705  0.36736366  0.94374454     0.29600
C678        C  0.95479425  0.33622085  0.92551568    -0.21200
C679        C  0.49601551  0.32594297  0.91472639    -0.09200
C680        C  0.53556261  0.34698797  0.92300151     0.29600
F681        F  0.57636526  0.33802434  0.91345735    -0.19800
H682        H  0.56446346  0.39431269  0.94671219     0.18000
H683        H  0.92388893  0.32007115  0.91987036     0.18000
F684        F  0.91224345  0.37566183  0.95379298    -0.19800
C685        C  0.94631773  0.37420556  0.05940040    -0.21200
C686        C  0.98676015  0.39562401  0.05297992    -0.09200
C687        C  0.52673941  0.38430649  0.06476832     0.29600
C688        C  0.52623658  0.35177848  0.08210079    -0.21200
C689        C  0.98604541  0.32983845  0.08830195    -0.09200
C690        C  0.94582497  0.34160953  0.07688293     0.29600
F691        F  0.90617422  0.32127111  0.08222353    -0.19800
H692        H  0.91503195  0.38224708  0.05066539     0.18000
H693        H  0.55766893  0.34387632  0.09073303     0.18000
F694        F  0.56654390  0.40463846  0.05972457    -0.19800
C695        C  0.52774803  0.10130196  0.05688832    -0.21200
C696        C  0.98700978  0.08116021  0.04995867    -0.09200
C697        C  0.94684521  0.09417853  0.06106080     0.29600
C698        C  0.94794897  0.12566329  0.07914132    -0.21200
C699        C  0.98889528  0.14508057  0.08641509    -0.09200
C700        C  0.52882881  0.13295415  0.07477321     0.29600
F701        F  0.56915356  0.15155256  0.08054097    -0.19800
H702        H  0.55914057  0.09248816  0.04849284     0.18000
H703        H  0.91661862  0.13461444  0.08755262     0.18000
F704        F  0.90651627  0.07617203  0.05479568    -0.19800
C705        C  0.85610492  0.08514272  0.42180272    -0.21200
C706        C  0.85058610  0.04583109  0.40906403    -0.09200
C707        C  0.87676609  0.00977521  0.41550693     0.29600
C708        C  0.90688903  0.01281777  0.43450520    -0.21200
C709        C  0.91202564  0.05178567  0.44755656    -0.09200
C710        C  0.88647393  0.08819088  0.44090684     0.29600
F711        F  0.88993502  0.12635001  0.45313799    -0.19800
H712        H  0.83617512  0.11326666  0.41732287     0.18000
H713        H  0.92658969  0.98446412  0.43885462     0.18000
F714        F  0.87378538  0.97151160  0.40330786    -0.19800
C715        C  0.65022205  0.00828337  0.42314185    -0.21200
C716        C  0.66131887  0.04515460  0.40937267    -0.09200
C717        C  0.64006618  0.08498023  0.41447645     0.29600
C718        C  0.60899851  0.08757758  0.43323212    -0.21200
C719        C  0.59827441  0.05057536  0.44707376    -0.09200
C720        C  0.61922241  0.01076041  0.44167626     0.29600
F721        F  0.61035993  0.97395944  0.45444890    -0.19800
H722        H  0.66588417  0.97718583  0.41974582     0.18000
H723        H  0.59300460  0.11846013  0.43675643     0.18000
F724        F  0.64887426  0.12131531  0.40131253    -0.19800
C725        C  0.89675844  0.03245870  0.31542594    -0.21200
C726        C  0.85257851  0.02047682  0.30916674    -0.09200
C727        C  0.84415530  0.00095990  0.28699734     0.29600
C728        C  0.87974651  0.99284259  0.27142753    -0.21200
C729        C  0.92437840  0.00340087  0.27790087    -0.09200
C730        C  0.93256775  0.02380195  0.29999343     0.29600
F731        F  0.97519652  0.03298729  0.30732317    -0.19800
H732        H  0.90366712  0.04697509  0.33268225     0.18000
H733        H  0.87244292  0.97776205  0.25436902     0.18000
F734        F  0.80156348  0.98947592  0.28052351    -0.19800
C735        C  0.59985741  0.04242935  0.28149895    -0.21200
C736        C  0.58024199  0.00041157  0.28018865    -0.09200
C737        C  0.59701268  0.96729631  0.29495522     0.29600
C738        C  0.63372786  0.97549025  0.30976210    -0.21200
C739        C  0.65442492  0.01705910  0.31075951    -0.09200
C740        C  0.63663788  0.05084778  0.29668377     0.29600
F741        F  0.65496576  0.09171716  0.29730119    -0.19800
H742        H  0.58748051  0.06844346  0.27032104     0.18000
H743        H  0.64562241  0.94894939  0.32072121     0.18000
F744        F  0.57744610  0.92691563  0.29548976    -0.19800
C745        C  0.64924712  0.08645580  0.58091577    -0.21200
C746        C  0.66437262  0.04530555  0.58841281    -0.09200
C747        C  0.64784021  0.00772948  0.57660174     0.29600
C748        C  0.61703970  0.01133225  0.55802094    -0.21200
C749        C  0.60152591  0.05225395  0.55057442    -0.09200
C750        C  0.61817580  0.09003432  0.56218676     0.29600
F751        F  0.60424244  0.13034450  0.55572045    -0.19800
H752        H  0.66142651  0.11598353  0.58956081     0.18000
H753        H  0.60507202  0.98155787  0.54954361     0.18000
F754        F  0.66108314  0.46711083  0.58296424    -0.19800
C755        C  0.86136381  0.01029112  0.57707517    -0.21200
C756        C  0.85182421  0.04727042  0.59087379    -0.09200
C757        C  0.87386307  0.08714114  0.58534055     0.29600
C758        C  0.90437523  0.08956382  0.56622449    -0.21200
C759        C  0.91355420  0.05235492  0.55240669    -0.09200
C760        C  0.89157161  0.01261693  0.55816497     0.29600
F761        F  0.89862802  0.47567973  0.54539143    -0.19800
H762        H  0.84491753  0.47917274  0.58068367     0.18000
H763        H  0.92114075  0.12043537  0.56240061     0.18000
F764        F  0.86635858  0.12361119  0.59842467    -0.19800
C765        C  0.96669322  0.12711468  0.80024370    -0.21200
C766        C  0.50595261  0.14089309  0.81233149    -0.09200
C767        C  0.54630150  0.11836771  0.80811306     0.29600
C768        C  0.54642109  0.08161430  0.79330149    -0.21200
C769        C  0.50682216  0.06717033  0.78209424    -0.09200
C770        C  0.96714201  0.09067339  0.78515686     0.29600
F771        F  0.92834009  0.07696192  0.77457640    -0.19800
H772        H  0.93525054  0.14385901  0.80294112     0.18000
H773        H  0.57722808  0.06354210  0.79110741     0.18000
F774        F  0.58527181  0.13044257  0.81907995    -0.19800
C775        C  0.54248133  0.37954815  0.78562302    -0.21200
C776        C  0.50319652  0.40366975  0.78137762    -0.09200
C777        C  0.96363107  0.39115998  0.79376866     0.29600
C778        C  0.96318049  0.35498330  0.80895502    -0.21200
C779        C  0.50240857  0.33118421  0.81307973    -0.09200
C780        C  0.54213362  0.34377560  0.80112148     0.29600
F781        F  0.58104979  0.32204653  0.80462831    -0.19800
H782        H  0.57444668  0.38896543  0.77790004     0.18000
H783        H  0.93223640  0.34662075  0.81822306     0.18000
F784        F  0.92546259  0.41469245  0.79188542    -0.19800
C785        C  0.60075475  0.04134620  0.71838823    -0.21200
C786        C  0.57895657  0.00029412  0.71842624    -0.09200
C787        C  0.59315707  0.96825548  0.70224630     0.29600
C788        C  0.62962041  0.97645712  0.68716907    -0.21200
C789        C  0.65273140  0.01691575  0.68756340    -0.09200
C790        C  0.63739932  0.04971393  0.70311647     0.29600
F791        F  0.65840932  0.08935540  0.70407242    -0.19800
H792        H  0.59037470  0.06643834  0.73075254     0.18000
H793        H  0.63967854  0.95083334  0.67506176     0.18000
F794        F  0.57151406  0.92892824  0.70083919    -0.19800
C795        C  0.93092643  0.02625648  0.70163410    -0.21200
C796        C  0.92306422  0.00216107  0.72260120    -0.09200
C797        C  0.87846250  0.48898987  0.72807776     0.29600
C798        C  0.84336338  0.49747230  0.71221707    -0.21200
C799        C  0.85161904  0.02051623  0.69109054    -0.09200
C800        C  0.89547698  0.03556894  0.68604757     0.29600
F801        F  0.90436229  0.05732822  0.66545941    -0.19800
H802        H  0.96470123  0.03662670  0.69684534     0.18000
H803        H  0.80962957  0.48597288  0.71639904     0.18000
F804        F  0.86846076  0.46838442  0.74887004    -0.19800
C805        C  0.00419960  0.94542733  0.76629798     0.86600
C806        C  0.96262733  0.95107172  0.75031563    -0.53600
C807        C  0.96139901  0.48998270  0.73831398     0.09500
C808        C  0.00363394  0.51907474  0.74256383     0.20500
C809        C  0.54377053  0.95123952  0.74881912    -0.54400
C810        C  0.54361863  0.48957335  0.73634025     0.09600
C811        C  0.00608830  0.98634644  0.78203513    -0.53900
C812        C  0.50591722  0.52462543  0.76974415     0.10200
H813        H  0.93693033  0.92578172  0.74827658     0.14700
H814        H  0.00361562  0.55062744  0.73282049     0.00500
H815        H  0.56951281  0.92715595  0.74593543     0.15000
H816        H  0.00724293  0.98511110  0.80137959     0.14800
O817        O  0.71249488  0.00374565  0.61353182    -0.74300
O818        O  0.79949745  0.99142930  0.66313860    -0.74300
O819        O  0.70831219  0.99036482  0.66089844    -0.74400
O820        O  0.80292785  0.00484631  0.61556485    -0.74400
O821        O  0.80247796  0.57699646  0.62067201    -0.74400
O822        O  0.70828583  0.56213086  0.66743591    -0.74400
O823        O  0.80082373  0.56372390  0.66847271    -0.74300
O824        O  0.71116188  0.57560250  0.61948445    -0.74400
Ni825      Ni  0.75585787  0.99513450  0.63815422     1.25400
Ni826      Ni  0.75566518  0.57224577  0.64434789     1.25400
C827        C  0.69752810  0.54147575  0.60814348     0.87900
C828        C  0.81531776  0.52560545  0.67353659     0.87800
C829        C  0.69187170  0.52372185  0.67135152     0.87800
C830        C  0.81776384  0.54310287  0.61015220     0.88000
O831        O  0.70899062  0.99041456  0.33782278    -0.74300
O832        O  0.80149460  0.00355790  0.38435880    -0.74300
O833        O  0.71074641  0.00333252  0.38521733    -0.74400
O834        O  0.80003462  0.99100383  0.33672019    -0.74400
O835        O  0.80174458  0.56334989  0.33165223    -0.74400
O836        O  0.70995172  0.57520664  0.37920917    -0.74400
O837        O  0.80120934  0.57580156  0.37957522    -0.74300
O838        O  0.70942139  0.56218105  0.33141042    -0.74400
Ni839      Ni  0.75533230  0.99458691  0.36117286     1.25400
Ni840      Ni  0.75564862  0.57176297  0.35516481     1.25400
C841        C  0.69308429  0.52383565  0.32726094     0.87900
C842        C  0.81630425  0.54167605  0.38997464     0.87800
C843        C  0.69550055  0.54116686  0.39025645     0.87800
C844        C  0.81615423  0.52525266  0.32656507     0.88000
O845        O  0.52814598  0.52885070  0.97641278    -0.74300
O846        O  0.52505401  0.94359507  0.02604077    -0.74300
O847        O  0.52781307  0.94034547  0.97795332    -0.74400
O848        O  0.52522483  0.53173612  0.02441176    -0.74400
O849        O  0.95030572  0.53063198  0.02339641    -0.74400
O850        O  0.95290776  0.93901487  0.97684017    -0.74400
O851        O  0.95013828  0.94217681  0.02503933    -0.74300
O852        O  0.95325250  0.52778256  0.97520324    -0.74400
Ni853      Ni  0.52919099  0.98612232  0.00123727     1.25400
Ni854      Ni  0.94896150  0.98484695  0.00005267     1.25400
C855        C  0.99121664  0.54284480  0.96774184     0.87900
C856        C  0.98727804  0.92881857  0.03381500     0.87800
C857        C  0.99080375  0.92443776  0.96971825     0.87800
C858        C  0.98739744  0.54626607  0.03165026     0.88000
O859        O  0.52744968  0.69393330  0.11291626    -0.74300
O860        O  0.53034727  0.78097220  0.16156668    -0.74300
O861        O  0.53247306  0.69285567  0.16090555    -0.74400
O862        O  0.52563230  0.78178792  0.11371870    -0.74400
O863        O  0.95073573  0.77870702  0.11513675    -0.74400
O864        O  0.95762721  0.69079368  0.16377916    -0.74400
O865        O  0.95538490  0.77948533  0.16321947    -0.74300
O866        O  0.95269231  0.69027827  0.11529593    -0.74400
Ni867      Ni  0.53156220  0.73744188  0.13724088     1.25400
Ni868      Ni  0.95135727  0.73462881  0.13947507     1.25400
C869        C  0.98968137  0.67795509  0.10584370     0.87900
C870        C  0.99342138  0.79519481  0.17011810     0.87800
C871        C  0.99637337  0.67702913  0.17012549     0.87800
C872        C  0.98729201  0.79503188  0.10657216     0.88000
C873        C  0.00257141  0.94602934  0.23339402     0.86600
C874        C  0.54325391  0.95181642  0.25014770    -0.53600
C875        C  0.54403897  0.49011203  0.26267168     0.09500
C876        C  0.00398201  0.51983931  0.25701402     0.20500
C877        C  0.96179716  0.95224429  0.24980236    -0.54400
C878        C  0.96194815  0.49100247  0.26193115     0.09600
C879        C  0.00409290  0.98666470  0.21757291    -0.53900
C880        C  0.00491173  0.52512502  0.22977414     0.10200
H881        H  0.56951182  0.92813239  0.25239566     0.14700
H882        H  0.50452980  0.55147283  0.26669066     0.00500
H883        H  0.93506879  0.92786974  0.25167112     0.15000
H884        H  0.50411213  0.98513905  0.19821935     0.14800
O885        O  0.96409831  0.77940200  0.83798265    -0.74300
O886        O  0.96181796  0.68969793  0.88545765    -0.74300
O887        O  0.96071335  0.77787195  0.88631299    -0.74400
O888        O  0.96564473  0.69067290  0.83714042    -0.74400
O889        O  0.54047613  0.69238386  0.83908854    -0.74400
O890        O  0.53559111  0.78025428  0.88747881    -0.74400
O891        O  0.53664634  0.69210083  0.88732823    -0.74300
O892        O  0.53901239  0.78096939  0.83918327    -0.74400
Ni893      Ni  0.96040308  0.73434135  0.86161280     1.25400
Ni894      Ni  0.54057150  0.73652541  0.86327650     1.25400
C895        C  0.50189805  0.79523150  0.83080047     0.87900
C896        C  0.49875394  0.67639278  0.89448219     0.87800
C897        C  0.49748681  0.79318450  0.89519473     0.87800
C898        C  0.50396342  0.67662888  0.83023051     0.88000
O899        O  0.96064136  0.01794352  0.52403538    -0.74300
O900        O  0.54937202  0.01695161  0.47532964    -0.74300
O901        O  0.55090818  0.01777802  0.52335291    -0.74400
O902        O  0.95927108  0.01733464  0.47584997    -0.74400
O903        O  0.95968215  0.59008889  0.47563501    -0.74400
O904        O  0.55319014  0.59048173  0.52328407    -0.74400
O905        O  0.55101311  0.58964403  0.47446386    -0.74300
O906        O  0.96180733  0.59064640  0.52451083    -0.74400
Ni907      Ni  0.00495610  0.01510657  0.49966928     1.25400
Ni908      Ni  0.00644668  0.59297550  0.49946548     1.25400
C909        C  0.94682204  0.55400028  0.53265129     0.87900
C910        C  0.56469226  0.55273267  0.46659541     0.87800
C911        C  0.56707405  0.55388543  0.53139819     0.87800
C912        C  0.94490642  0.55340244  0.46747100     0.87800
C913        C  0.95804016  0.85883097  0.19002372    -0.21200
C914        C  0.99488503  0.83112641  0.18763128    -0.09200
C915        C  0.53399627  0.83986859  0.20095291     0.29600
C916        C  0.53628229  0.87585600  0.21614639    -0.21200
C917        C  0.99970432  0.90435239  0.21845881    -0.09200
C918        C  0.96052740  0.89533289  0.20492741     0.29600
F919        F  0.92490164  0.92254872  0.20558755    -0.19800
H920        H  0.92775351  0.85320423  0.17963548     0.18000
H921        H  0.56788679  0.88151167  0.22514960     0.18000
F922        F  0.57047843  0.81391649  0.19914350    -0.19800
C923        C  0.97040788  0.59669339  0.22005607    -0.21200
C924        C  0.00575872  0.56733844  0.21718570    -0.09200
C925        C  0.53932262  0.57603138  0.20018633     0.29600
C926        C  0.53672366  0.61281108  0.18568804    -0.21200
C927        C  0.00010699  0.64107248  0.18749192    -0.09200
C928        C  0.96722669  0.63321819  0.20512339     0.29600
F929        F  0.93196079  0.66044746  0.20775578    -0.19800
H930        H  0.94421318  0.59017350  0.23306545     0.18000
H931        H  0.56249983  0.61813847  0.17230184     0.18000
F932        F  0.57401307  0.54821409  0.19717925    -0.19800
C933        C  0.95559192  0.62472633  0.92073694    -0.21200
C934        C  0.49726070  0.64253745  0.91340868    -0.09200
C935        C  0.53678014  0.62770592  0.92442872     0.29600
C936        C  0.53441643  0.59529293  0.94194092    -0.21200
C937        C  0.99276793  0.57711588  0.94905631    -0.09200
C938        C  0.95320923  0.59253006  0.93835467     0.29600
F939        F  0.91208202  0.57660590  0.94478230    -0.19800
H940        H  0.92453083  0.63564768  0.91278929     0.18000
H941        H  0.56544538  0.58454745  0.94999995     0.18000
F942        F  0.57781663  0.64446853  0.91845758    -0.19800
C943        C  0.53348619  0.87824542  0.94108238    -0.21200
C944        C  0.99217472  0.88936129  0.95145555    -0.09200
C945        C  0.95277213  0.86735412  0.94374097     0.29600
C946        C  0.95478422  0.83621624  0.92550894    -0.21200
C947        C  0.49600372  0.82593746  0.91471827    -0.09200
C948        C  0.53555391  0.84697612  0.92299541     0.29600
F949        F  0.57635632  0.83801034  0.91345141    -0.19800
H950        H  0.56446145  0.89429129  0.94670936     0.18000
H951        H  0.92387738  0.82007076  0.91986241     0.18000
F952        F  0.91224064  0.87565252  0.95379160    -0.19800
C953        C  0.94631838  0.87416101  0.05938956    -0.21200
C954        C  0.98675424  0.89560808  0.05298535    -0.09200
C955        C  0.52672280  0.88433351  0.06479640     0.29600
C956        C  0.52621873  0.85181411  0.08213325    -0.21200
C957        C  0.98603597  0.82984137  0.08831625    -0.09200
C958        C  0.94582395  0.84157373  0.07687681     0.29600
F959        F  0.90618246  0.82120228  0.08220021    -0.19800
H960        H  0.91504080  0.88217174  0.05063735     0.18000
H961        H  0.55764287  0.84394383  0.09078309     0.18000
F962        F  0.56651678  0.90470171  0.05977174    -0.19800
C963        C  0.52774451  0.60131727  0.05688846    -0.21200
C964        C  0.98700152  0.58119487  0.04994917    -0.09200
C965        C  0.94683523  0.59423141  0.06104282     0.29600
C966        C  0.94794174  0.62570867  0.07912732    -0.21200
C967        C  0.98889256  0.64510160  0.08641300    -0.09200
C968        C  0.52882816  0.63296264  0.07477691     0.29600
F969        F  0.56915801  0.65153880  0.08055539    -0.19800
H970        H  0.55913899  0.59249070  0.04849929     0.18000
H971        H  0.91660957  0.63467302  0.08753237     0.18000
F972        F  0.90650153  0.57625010  0.05476553    -0.19800
C973        C  0.85610727  0.58513831  0.42181079    -0.21200
C974        C  0.85059173  0.54582938  0.40906915    -0.09200
C975        C  0.87677452  0.50977404  0.41550996     0.29600
C976        C  0.90689604  0.51281365  0.43450900    -0.21200
C977        C  0.91202963  0.55177835  0.44756324    -0.09200
C978        C  0.88647565  0.58818371  0.44091566     0.29600
F979        F  0.88993398  0.62633999  0.45314968    -0.19800
H980        H  0.83617550  0.61326193  0.41733261     0.18000
H981        H  0.92659869  0.48446033  0.43885652     0.18000
F982        F  0.87379814  0.47151348  0.40330787    -0.19800
C983        C  0.65024293  0.50826970  0.42315017    -0.21200
C984        C  0.66132031  0.54513547  0.40937227    -0.09200
C985        C  0.64004719  0.58495426  0.41446749     0.29600
C986        C  0.60898134  0.58755168  0.43322412    -0.21200
C987        C  0.59827789  0.55055580  0.44707504    -0.09200
C988        C  0.61924412  0.51074662  0.44168546     0.29600
F989        F  0.61040174  0.47395255  0.45446762    -0.19800
H990        H  0.66592103  0.47717746  0.41976078     0.18000
H991        H  0.59297186  0.61842906  0.43674172     0.18000
F992        F  0.64883256  0.62128214  0.40129372    -0.19800
C993        C  0.89677771  0.53243934  0.31543096    -0.21200
C994        C  0.85259348  0.52047897  0.30916834    -0.09200
C995        C  0.84416473  0.50098362  0.28699371     0.29600
C996        C  0.87975436  0.49286327  0.27142292    -0.21200
C997        C  0.92438951  0.50340014  0.27789946    -0.09200
C998        C  0.93258464  0.52378232  0.29999659     0.29600
F999        F  0.97521635  0.53294795  0.30732842    -0.19800
H1000       H  0.90369092  0.54693936  0.33269077     0.18000
H1001       H  0.87244721  0.47779682  0.25436113     0.18000
F1002       F  0.80156900  0.48952185  0.28051606    -0.19800
C1003       C  0.59986541  0.54241007  0.28150176    -0.21200
C1004       C  0.58025613  0.50038987  0.28018833    -0.09200
C1005       C  0.59703688  0.46727219  0.29495030     0.29600
C1006       C  0.63375370  0.47546757  0.30975613    -0.21200
C1007       C  0.65444210  0.51704012  0.31075764    -0.09200
C1008       C  0.63664676  0.55082982  0.29668574     0.29600
F1009       F  0.65496631  0.59170241  0.29730676    -0.19800
H1010       H  0.58748218  0.56842626  0.27032728     0.18000
H1011       H  0.64565528  0.44892518  0.32071193     0.18000
F1012       F  0.57747755  0.42688821  0.29548259    -0.19800
C1013       C  0.64923993  0.58644638  0.58092667    -0.21200
C1014       C  0.66439386  0.54530009  0.58841316    -0.09200
C1015       C  0.64789363  0.50772437  0.57658929     0.29600
C1016       C  0.61709110  0.51132346  0.55800867    -0.21200
C1017       C  0.60154548  0.55224103  0.55057472    -0.09200
C1018       C  0.61816813  0.59002118  0.56219782     0.29600
F1019       F  0.60420398  0.63032747  0.55574377    -0.19800
H1020       H  0.66139469  0.61597393  0.58958105     0.18000
H1021       H  0.60514712  0.48155004  0.54952140     0.18000
F1022       F  0.66099524  0.96711185  0.58298986    -0.19800
C1023       C  0.86137562  0.51029420  0.57708709    -0.21200
C1024       C  0.85183547  0.54727713  0.59088305    -0.09200
C1025       C  0.87387204  0.58714689  0.58534534     0.29600
C1026       C  0.90438434  0.58956431  0.56622888    -0.21200
C1027       C  0.91356503  0.55235143  0.55241434    -0.09200
C1028       C  0.89158245  0.51261513  0.55817604     0.29600
F1029       F  0.89861834  0.97568460  0.54537792    -0.19800
H1030       H  0.84490488  0.97916898  0.58066907     0.18000
H1031       H  0.92114827  0.62043533  0.56240195     0.18000
F1032       F  0.86636481  0.62362128  0.59842532    -0.19800
C1033       C  0.96690247  0.62736598  0.80005145    -0.21200
C1034       C  0.50602631  0.64085345  0.81235045    -0.09200
C1035       C  0.54626595  0.61801743  0.80836200     0.29600
C1036       C  0.54638292  0.58125363  0.79356107    -0.21200
C1037       C  0.50690374  0.56710814  0.78212890    -0.09200
C1038       C  0.96736135  0.59092016  0.78496434     0.29600
F1039       F  0.92866955  0.57750404  0.77416620    -0.19800
H1040       H  0.93555300  0.64435963  0.80257322     0.18000
H1041       H  0.57708334  0.56294753  0.79154346     0.18000
F1042       F  0.58510089  0.62978770  0.81955434    -0.19800
C1043       C  0.54250417  0.87960560  0.78564269    -0.21200
C1044       C  0.50322014  0.90373031  0.78140018    -0.09200
C1045       C  0.96365668  0.89122179  0.79379266     0.29600
C1046       C  0.96320296  0.85503355  0.80897149    -0.21200
C1047       C  0.50242714  0.83122207  0.81308713    -0.09200
C1048       C  0.54215408  0.84382300  0.80113395     0.29600
F1049       F  0.58106920  0.82209028  0.80463690    -0.19800
H1050       H  0.57447025  0.88902386  0.77792152     0.18000
H1051       H  0.93225890  0.84666749  0.81823859     0.18000
F1052       F  0.92549136  0.91476038  0.79191304    -0.19800
C1053       C  0.60074035  0.54133610  0.71839224    -0.21200
C1054       C  0.57894595  0.50028120  0.71842568    -0.09200
C1055       C  0.59315194  0.46825181  0.70224138     0.29600
C1056       C  0.62961715  0.47646299  0.68716664    -0.21200
C1057       C  0.65272535  0.51692301  0.68756630    -0.09200
C1058       C  0.63738622  0.54971405  0.70312191     0.29600
F1059       F  0.65839082  0.58935785  0.70408192    -0.19800
H1060       H  0.59035650  0.56642269  0.73075886     0.18000
H1061       H  0.63967890  0.45084489  0.67505677     0.18000
F1062       F  0.57151232  0.42892386  0.70082683    -0.19800
C1063       C  0.93093144  0.52625407  0.70164201    -0.21200
C1064       C  0.92305791  0.50218368  0.72261606    -0.09200
C1065       C  0.87847443  0.98893329  0.72805482     0.29600
C1066       C  0.84337437  0.99740824  0.71219336    -0.21200
C1067       C  0.85161848  0.52054988  0.69110538    -0.09200
C1068       C  0.89548494  0.53556952  0.68605419     0.29600
F1069       F  0.90438029  0.55729578  0.66545689    -0.19800
H1070       H  0.96471264  0.53659726  0.69684862     0.18000
H1071       H  0.80964656  0.98588461  0.71636955     0.18000
F1072       F  0.86847535  0.96830777  0.74884146    -0.19800
loop_ 
_geom_bond_atom_site_label_1 
_geom_bond_atom_site_label_2 
_geom_bond_distance 
_geom_bond_site_symmetry_2 
_ccdc_geom_bond_type 
C1            C2   1.539       .  S
C1            C7   1.532       .  S
C1          C541   1.539       .  S
C1          C776   1.532       .  S
C2            H9   1.085       .  S
C2          C271   1.370       .  D
C3            C4   1.546   1_565  S
C3          C270   1.370       .  D
C3          C260   1.492   1_565  S
C4          C544   1.536       .  S
C4          C542   1.544   1_545  S
C4           H10   1.110       .  S
C5          C537   1.539       .  S
C5           H11   1.083       .  S
C5          C274   1.367       .  D
C6          C540   1.544   1_565  S
C6          C273   1.367       .  D
C6          C250   1.486   1_565  S
C7           H12   1.087       .  S
C7          C812   1.362       .  D
C8          C540   1.536       .  S
C8          C811   1.362   1_545  D
C8          C233   1.474       .  S
O13         Ni21   1.910       .  S
O13         C291   1.281       .  A
O14         Ni21   1.914       .  S
O14         C292   1.279       .  A
O15         Ni21   1.908       .  S
O15         C293   1.280       .  A
O16         Ni21   1.907       .  S
O16         C294   1.281       .  A
O17         Ni22   1.927       .  S
O17          C26   1.283       .  A
O18         Ni22   1.934       .  S
O18          C25   1.285       .  A
O19         Ni22   1.927       .  S
O19          C24   1.282       .  A
O20         Ni22   1.926       .  S
O20          C23   1.283       .  A
Ni21       Ni290   2.385       .  S
Ni22       Ni289   2.385   1_545  S
C23         O281   1.281       .  A
C23         C210   1.487       .  S
C24         O282   1.279   1_545  A
C24         C263   1.471       .  S
C25         O283   1.280   1_545  A
C25         C253   1.489       .  S
C26         O284   1.281       .  A
C26         C220   1.485       .  S
O27         Ni35   1.904       .  S
O27         C305   1.280       .  A
O28         Ni35   1.907       .  S
O28         C306   1.280       .  A
O29         Ni35   1.913       .  S
O29         C307   1.282       .  A
O30         Ni35   1.914       .  S
O30         C308   1.280       .  A
O31         Ni36   1.922       .  S
O31          C40   1.281       .  A
O32         Ni36   1.918       .  S
O32          C39   1.281       .  A
O33         Ni36   1.928       .  S
O33          C38   1.284       .  A
O34         Ni36   1.933       .  S
O34          C37   1.284       .  A
Ni35       Ni304   2.386       .  S
Ni36       Ni303   2.386   1_545  S
C37         O295   1.280   1_545  A
C37         C203   1.487       .  S
C38         O296   1.280       .  A
C38         C170   1.483       .  S
C39         O297   1.282       .  A
C39         C180   1.483       .  S
C40         O298   1.280   1_545  A
C40         C190   1.467       .  S
O41        Ni317   1.911   1_546  S
O41         C587   1.280   1_455  A
O42         Ni49   1.909       .  S
O42         C588   1.280   1_455  A
O43         Ni49   1.915   1_556  S
O43         C589   1.282   1_455  A
O44        Ni317   1.912   1_545  S
O44         C590   1.281   1_455  A
O45        Ni318   1.917   1_545  S
O45          C54   1.281       .  A
O46         Ni50   1.919   1_556  S
O46          C53   1.282       .  A
O47         Ni50   1.917       .  S
O47          C52   1.281       .  A
O48        Ni318   1.919   1_546  S
O48          C51   1.282       .  A
Ni49        O309   1.911   1_554  S
Ni49        O312   1.912       .  S
Ni49       Ni586   2.385   1_455  S
Ni50        O313   1.917       .  S
Ni50        O316   1.919   1_554  S
Ni50       Ni585   2.385       .  S
C51         O577   1.280       .  A
C51         C133   1.484       .  S
C52         O578   1.280       .  A
C52         C150   1.480       .  S
C53         O579   1.282       .  A
C53         C140   1.485       .  S
C54         O580   1.281       .  A
C54         C160   1.482       .  S
O55         Ni63   1.909       .  S
O55         C601   1.280   1_455  A
O56         Ni63   1.908       .  S
O56         C602   1.280   1_455  A
O57         Ni63   1.905       .  S
O57         C603   1.279   1_455  A
O58         Ni63   1.904       .  S
O58         C604   1.280   1_455  A
O59         Ni64   1.920       .  S
O59          C68   1.282       .  A
O60         Ni64   1.925       .  S
O60          C67   1.283       .  A
O61         Ni64   1.915       .  S
O61          C66   1.281       .  A
O62         Ni64   1.920       .  S
O62          C65   1.282       .  A
Ni63       Ni600   2.387   1_455  S
Ni64       Ni599   2.387       .  S
C65         O591   1.280       .  A
C65         C163   1.483       .  S
C66         O592   1.280       .  A
C66         C110   1.475       .  S
C67         O593   1.279       .  A
C67         C123   1.476       .  S
C68         O594   1.280       .  A
C68         C153   1.479       .  S
C69          C75   1.528       .  S
C69          C73   1.536       .  S
C69         C606   1.539       .  S
C69         C113   1.527       .  S
C70         C605   1.539       .  S
C70          H77   1.081       .  S
C70         C339   1.367       .  D
C71         C608   1.543   1_565  S
C71         C338   1.367       .  D
C71         C200   1.487   1_565  S
C72          C76   1.537       .  S
C72          C74   1.543   1_545  S
C72         C607   1.543   1_545  S
C72         H614   1.110       .  S
C73          H79   1.086       .  S
C73         C342   1.368       .  D
C74         C341   1.368       .  D
C74         C193   1.485   1_565  S
C75         H616   1.087       .  S
C75         C344   1.362       .  D
C76         C343   1.362   1_545  D
C76         C120   1.473       .  S
H78         C608   1.110       .  S
H80         C611   1.087       .  S
O81         Ni89   1.916       .  S
O81         C627   1.281       .  A
O82         Ni89   1.914       .  S
O82         C628   1.281       .  A
O83         Ni89   1.922       .  S
O83         C629   1.283       .  A
O84         Ni89   1.924       .  S
O84         C630   1.283       .  A
O85         Ni90   1.915       .  S
O85          C94   1.281       .  A
O86         Ni90   1.914       .  S
O86          C93   1.281   1_455  A
O87         Ni90   1.918       .  S
O87          C92   1.282   1_455  A
O88         Ni90   1.919       .  S
O88          C91   1.282       .  A
Ni89       Ni626   2.384       .  S
Ni90       Ni625   2.384   1_455  S
C91         O617   1.281   1_455  A
C91         C243   1.484       .  S
C92         O618   1.281       .  A
C92         C130   1.484       .  S
C93         O619   1.283       .  A
C93         C143   1.486       .  S
C94         O620   1.283   1_455  A
C94         C230   1.487       .  S
O95        Ni103   1.901       .  S
O95         C373   1.279       .  A
O96        Ni639   1.899       .  S
O96         C374   1.278       .  A
O97        Ni639   1.906       .  S
O97         C375   1.280       .  A
O98        Ni103   1.907       .  S
O98         C376   1.280       .  A
O99        Ni104   1.930       .  S
O99         C108   1.284       .  A
O100       Ni640   1.930       .  S
O100        C107   1.283       .  A
O101       Ni640   1.933       .  S
O101        C106   1.285       .  A
O102       Ni104   1.933       .  S
O102        C105   1.284       .  A
Ni103       O632   1.899       .  S
Ni103       O633   1.906       .  S
Ni103      Ni372   2.384       .  S
Ni104       O636   1.930       .  S
Ni104       O637   1.933       .  S
Ni104      Ni371   2.384       .  S
C105        O363   1.279       .  A
C105        C223   1.486       .  S
C106        O364   1.278       .  A
C106        C183   1.484       .  S
C107        O365   1.280       .  A
C107        C213   1.487       .  S
C108        O366   1.280       .  A
C108        C173   1.484       .  S
C109        C110   1.402       .  A
C109        C114   1.396       .  A
C109        H116   1.084       .  S
C110        C647   1.404       .  A
C111        C112   1.393       .  A
C111        C646   1.404   1_455  A
C111        F118   1.358       .  S
C112        C649   1.410   1_455  A
C112        H117   1.078       .  S
C113        C114   1.413       .  A
C113        C648   1.410       .  A
C114        F115   1.358       .  S
C119        C120   1.402       .  A
C119        C124   1.402       .  A
C119        H126   1.083       .  S
C120        C657   1.402       .  A
C121        C122   1.392       .  A
C121        C656   1.402       .  A
C121        F128   1.358       .  S
C122        C659   1.404       .  A
C122        H127   1.083       .  S
C123        C124   1.408       .  A
C123        C658   1.404       .  A
C124        F125   1.357       .  S
C129        C134   1.397       .  A
C129        C666   1.406       .  A
C129        H136   1.083       .  S
C130        C131   1.409   1_655  A
C130        C665   1.406       .  A
C131        C132   1.398       .  A
C131        F138   1.357       .  S
C132        C669   1.407   1_455  A
C132        H137   1.083       .  S
C133        C134   1.408       .  A
C133        C668   1.407       .  A
C134        F135   1.357       .  S
C139        C144   1.397       .  A
C139        C676   1.405   1_455  A
C139        H146   1.083       .  S
C140        C141   1.410       .  A
C140        C675   1.405       .  A
C141        C142   1.400       .  A
C141        F148   1.357       .  S
C142        C679   1.406       .  A
C142        H147   1.083       .  S
C143        C144   1.410   1_655  A
C143        C678   1.406       .  A
C144        F145   1.357       .  S
C149        C150   1.407       .  A
C149        C154   1.399       .  A
C149        H156   1.083       .  S
C150        C687   1.408       .  A
C151        C152   1.392       .  A
C151        C686   1.408   1_455  A
C151        F158   1.358       .  S
C152        C689   1.405   1_455  A
C152        H157   1.083       .  S
C153        C154   1.408       .  A
C153        C688   1.405       .  A
C154        F155   1.357       .  S
C159        C164   1.395       .  A
C159        C696   1.405   1_455  A
C159        H166   1.083       .  S
C160        C161   1.409       .  A
C160        C695   1.405       .  A
C161        C162   1.399       .  A
C161        F168   1.357       .  S
C162        C163   1.406       .  A
C162        H167   1.083       .  S
C163        C700   1.409       .  A
C164        C699   1.409   1_455  A
C164        F165   1.357       .  S
C169        C170   1.407       .  A
C169        C174   1.403       .  A
C169        H176   1.082       .  S
C170        C171   1.408       .  A
C171        C172   1.394       .  A
C171        F178   1.358   1_545  S
C172        C173   1.406       .  A
C172        H177   1.082   1_545  S
C173        C174   1.409       .  A
C174        F175   1.357       .  S
C179        C180   1.403       .  A
C179        C184   1.392       .  A
C179        H186   1.083   1_545  S
C180        C181   1.411       .  A
C181        C182   1.403       .  A
C181        F188   1.357       .  S
C182        C183   1.406       .  A
C182        H187   1.083       .  S
C183        C184   1.410       .  A
C184        F185   1.358   1_545  S
C189        C190   1.402       .  A
C189        C194   1.400       .  A
C189        H196   1.083       .  S
C190        C191   1.401       .  A
C191        C192   1.397   1_545  A
C191        F198   1.358   1_545  S
C192        C193   1.408   1_565  A
C192        H197   1.083       .  S
C193        C194   1.407       .  A
C194        F195   1.357       .  S
C199        C200   1.405       .  A
C199        C204   1.406       .  A
C199        H206   1.083       .  S
C200        C201   1.407   1_545  A
C201        C202   1.391       .  A
C201        F208   1.358       .  S
C202        C203   1.405   1_565  A
C202        H207   1.083       .  S
C203        C204   1.411       .  A
C204        F205   1.357       .  S
C209        C210   1.408       .  A
C209        C214   1.404       .  A
C209        H216   1.083       .  S
C210        C211   1.409       .  A
C211        C212   1.393       .  A
C211        F486   1.357   1_545  S
C212        C213   1.405       .  A
C212        H217   1.083   1_545  S
C213        C214   1.410       .  A
C214        F215   1.357       .  S
F218        C479   1.357       .  S
C219        C220   1.404       .  A
C219        C224   1.391       .  A
C219        H494   1.083   1_545  S
C220        C221   1.410       .  A
C221        C222   1.406       .  A
C221        F228   1.357       .  S
C222        C223   1.408       .  A
C222        H227   1.083       .  S
C223        C224   1.409       .  A
C224        F493   1.358   1_545  S
F225        C492   1.358       .  S
H226        C487   1.083       .  S
C229        C234   1.400       .  A
C229        C766   1.408       .  A
C229        H236   1.083       .  S
C230        C231   1.412       .  A
C230        C765   1.408   1_455  A
C231        C232   1.398       .  A
C231        F238   1.357       .  S
C232        C233   1.400       .  A
C232        H237   1.084       .  S
C233        C770   1.402   1_455  A
C234        C769   1.402       .  A
C234        F235   1.357       .  S
C239        C240   1.411       .  A
C239        C244   1.398       .  A
C239        H246   1.079       .  S
C240        C537   1.532       .  S
C240        C777   1.414   1_455  A
C241        C242   1.397       .  A
C241        C776   1.414       .  A
C241        F248   1.357       .  S
C242        C779   1.404       .  A
C242        H247   1.084       .  S
C243        C244   1.406       .  A
C243        C778   1.404   1_455  A
C244        F245   1.357       .  S
C249        C250   1.404       .  A
C249        C254   1.406       .  A
C249        H256   1.083       .  S
C250        C251   1.406   1_545  A
C251        C252   1.394       .  A
C251        F258   1.358       .  S
C252        C253   1.407   1_565  A
C252        H257   1.083       .  S
C253        C254   1.411       .  A
C254        F255   1.357       .  S
C259        C260   1.406       .  A
C259        C264   1.402       .  A
C259        H266   1.082       .  S
C260        C529   1.413   1_545  A
C261        C262   1.399       .  A
C261        C528   1.413       .  A
C261        F268   1.357       .  S
C262        C531   1.399       .  A
C262        H267   1.083       .  S
C263        C264   1.404       .  A
C263        C530   1.399   1_545  A
C264        F265   1.358       .  S
C269        C270   1.539       .  S
C269        C275   1.532       .  S
C269        C809   1.539       .  S
C269       C1044   1.532       .  S
C270        H277   1.085       .  S
C271        C272   1.546       .  S
C271        C528   1.492       .  S
C272        C812   1.536       .  S
C272        C810   1.544       .  S
C272        H278   1.110       .  S
C273        C805   1.539       .  S
C273        H279   1.083       .  S
C274        C808   1.544       .  S
C274        C518   1.486       .  S
C275        H280   1.087       .  S
C275        C544   1.362   1_565  D
C276        C808   1.536       .  S
C276        C543   1.362       .  D
C276        C501   1.474       .  S
O281       Ni289   1.910   1_545  S
O282       Ni289   1.914       .  S
O283       Ni289   1.908       .  S
O284       Ni289   1.907   1_545  S
O285       Ni290   1.927       .  S
O285        C294   1.283       .  A
O286       Ni290   1.935       .  S
O286        C293   1.285       .  A
O287       Ni290   1.927       .  S
O287        C292   1.282       .  A
O288       Ni290   1.926       .  S
O288        C291   1.283       .  A
C291        C478   1.488       .  S
C292        C531   1.471       .  S
C293        C521   1.489       .  S
C294        C488   1.485       .  S
O295       Ni303   1.904       .  S
O296       Ni303   1.907   1_545  S
O297       Ni303   1.913   1_545  S
O298       Ni303   1.914       .  S
O299       Ni304   1.922       .  S
O299        C308   1.281       .  A
O300       Ni304   1.918       .  S
O300        C307   1.281       .  A
O301       Ni304   1.928       .  S
O301        C306   1.284       .  A
O302       Ni304   1.933       .  S
O302        C305   1.284       .  A
C305        C471   1.487       .  S
C306        C438   1.483       .  S
C307        C448   1.483       .  S
C308        C458   1.467       .  S
O309        C855   1.280   1_455  A
O310       Ni317   1.909       .  S
O310        C856   1.280   1_455  A
O311       Ni317   1.915   1_556  S
O311        C857   1.282   1_455  A
O312        C858   1.281   1_455  A
O313        C322   1.281       .  A
O314       Ni318   1.919   1_556  S
O314        C321   1.282       .  A
O315       Ni318   1.917       .  S
O315        C320   1.281       .  A
O316        C319   1.282       .  A
Ni317      Ni854   2.385   1_455  S
Ni318      Ni853   2.385       .  S
C319        O845   1.280       .  A
C319        C401   1.484       .  S
C320        O846   1.280       .  A
C320        C418   1.480       .  S
C321        O847   1.282       .  A
C321        C408   1.485       .  S
C322        O848   1.281       .  A
C322        C428   1.482       .  S
O323       Ni331   1.909       .  S
O323        C869   1.280   1_455  A
O324       Ni331   1.908       .  S
O324        C870   1.280   1_455  A
O325       Ni331   1.905       .  S
O325        C871   1.279   1_455  A
O326       Ni331   1.904       .  S
O326        C872   1.280   1_455  A
O327       Ni332   1.920       .  S
O327        C336   1.282       .  A
O328       Ni332   1.925       .  S
O328        C335   1.283       .  A
O329       Ni332   1.915       .  S
O329        C334   1.281       .  A
O330       Ni332   1.920       .  S
O330        C333   1.282       .  A
Ni331      Ni868   2.387   1_455  S
Ni332      Ni867   2.387       .  S
C333        O859   1.280       .  A
C333        C431   1.483       .  S
C334        O860   1.280       .  A
C334        C378   1.475       .  S
C335        O861   1.279       .  A
C335        C391   1.476       .  S
C336        O862   1.280       .  A
C336        C421   1.479       .  S
C337        C874   1.539       .  S
C337        C343   1.528       .  S
C337        C341   1.536       .  S
C337        C381   1.527       .  S
C338        C873   1.539       .  S
C338        H345   1.081       .  S
C339        C876   1.543       .  S
C339        C468   1.487       .  S
C340        C875   1.543       .  S
C340        C344   1.537       .  S
C340        C342   1.543       .  S
C340        H882   1.110       .  S
C341        H347   1.086       .  S
C342        C461   1.485       .  S
C343        H884   1.087       .  S
C344        C388   1.473       .  S
H346        C876   1.110       .  S
H348        C879   1.087       .  S
O349       Ni357   1.915       .  S
O349        C895   1.281       .  A
O350       Ni357   1.914       .  S
O350        C896   1.281       .  A
O351       Ni357   1.922       .  S
O351        C897   1.283       .  A
O352       Ni357   1.924       .  S
O352        C898   1.283       .  A
O353       Ni358   1.915       .  S
O353        C362   1.281       .  A
O354       Ni358   1.914       .  S
O354        C361   1.281   1_455  A
O355       Ni358   1.918       .  S
O355        C360   1.282   1_455  A
O356       Ni358   1.919       .  S
O356        C359   1.282       .  A
Ni357      Ni894   2.384       .  S
Ni358      Ni893   2.384   1_455  S
C359        O885   1.281   1_455  A
C359        C511   1.484       .  S
C360        O886   1.281       .  A
C360        C398   1.484       .  S
C361        O887   1.283       .  A
C361        C411   1.486       .  S
C362        O888   1.283   1_455  A
C362        C498   1.487       .  S
O363       Ni371   1.901       .  S
O364       Ni907   1.899       .  S
O365       Ni907   1.906       .  S
O366       Ni371   1.907       .  S
O367       Ni372   1.930       .  S
O367        C376   1.284       .  A
O368       Ni908   1.930       .  S
O368        C375   1.283       .  A
O369       Ni908   1.933       .  S
O369        C374   1.285       .  A
O370       Ni372   1.933       .  S
O370        C373   1.284       .  A
Ni371       O900   1.899       .  S
Ni371       O901   1.906       .  S
Ni372       O904   1.930       .  S
Ni372       O905   1.933       .  S
C373        C491   1.486       .  S
C374        C451   1.484       .  S
C375        C481   1.487       .  S
C376        C441   1.484       .  S
C377        C378   1.402       .  A
C377        C382   1.396       .  A
C377        H384   1.084       .  S
C378        C915   1.404       .  A
C379        C914   1.404   1_455  A
C379        C380   1.393       .  A
C379        F386   1.358       .  S
C380        C917   1.410   1_455  A
C380        H385   1.078       .  S
C381        C916   1.410       .  A
C381        C382   1.413       .  A
C382        F383   1.358       .  S
C387        C388   1.402       .  A
C387        C392   1.402       .  A
C387        H394   1.083       .  S
C388        C925   1.402       .  A
C389        C924   1.402       .  A
C389        C390   1.392       .  A
C389        F396   1.358       .  S
C390        C927   1.404       .  A
C390        H395   1.083       .  S
C391        C926   1.404       .  A
C391        C392   1.408       .  A
C392        F393   1.357       .  S
C397        C934   1.406       .  A
C397        C402   1.397       .  A
C397        H404   1.083       .  S
C398        C933   1.406       .  A
C398        C399   1.409   1_655  A
C399        C400   1.398       .  A
C399        F406   1.357       .  S
C400        C937   1.407   1_455  A
C400        H405   1.083       .  S
C401        C936   1.407       .  A
C401        C402   1.408       .  A
C402        F403   1.357       .  S
C407        C944   1.405   1_455  A
C407        C412   1.397       .  A
C407        H414   1.083       .  S
C408        C943   1.405       .  A
C408        C409   1.410       .  A
C409        C410   1.400       .  A
C409        F416   1.357       .  S
C410        C947   1.406       .  A
C410        H415   1.083       .  S
C411        C946   1.406       .  A
C411        C412   1.410   1_655  A
C412        F413   1.357       .  S
C417        C418   1.407       .  A
C417        C422   1.399       .  A
C417        H424   1.083       .  S
C418        C955   1.408       .  A
C419        C954   1.408   1_455  A
C419        C420   1.392       .  A
C419        F426   1.358       .  S
C420        C957   1.405   1_455  A
C420        H425   1.083       .  S
C421        C956   1.405       .  A
C421        C422   1.408       .  A
C422        F423   1.357       .  S
C427        C964   1.405   1_455  A
C427        C432   1.395       .  A
C427        H434   1.083       .  S
C428        C963   1.405       .  A
C428        C429   1.409       .  A
C429        C430   1.399       .  A
C429        F436   1.357       .  S
C430        C431   1.406       .  A
C430        H435   1.083       .  S
C431        C968   1.409       .  A
C432        C967   1.409   1_455  A
C432        F433   1.357       .  S
C437        C438   1.407       .  A
C437        C442   1.403       .  A
C437        H444   1.082       .  S
C438        C439   1.408       .  A
C439        C440   1.394       .  A
C439        F446   1.358       .  S
C440        C441   1.406       .  A
C440        H445   1.082       .  S
C441        C442   1.409       .  A
C442        F443   1.357       .  S
C447        C448   1.403       .  A
C447        C452   1.392       .  A
C447        H454   1.083       .  S
C448        C449   1.411       .  A
C449        C450   1.403       .  A
C449        F456   1.357       .  S
C450        C451   1.406       .  A
C450        H455   1.083       .  S
C451        C452   1.410       .  A
C452        F453   1.358       .  S
C457        C458   1.402       .  A
C457        C462   1.400       .  A
C457        H464   1.083       .  S
C458        C459   1.401       .  A
C459        C460   1.397       .  A
C459        F466   1.358       .  S
C460        C461   1.408       .  A
C460        H465   1.083       .  S
C461        C462   1.407       .  A
C462        F463   1.357       .  S
C467        C468   1.405       .  A
C467        C472   1.406       .  A
C467        H474   1.083       .  S
C468        C469   1.407       .  A
C469        C470   1.391       .  A
C469        F476   1.358       .  S
C470        C471   1.405       .  A
C470        H475   1.083       .  S
C471        C472   1.411       .  A
C472        F473   1.357       .  S
C477        C478   1.408       .  A
C477        C482   1.404       .  A
C477        H484   1.083       .  S
C478        C479   1.409       .  A
C479        C480   1.393       .  A
C480        C481   1.405       .  A
C480        H485   1.083       .  S
C481        C482   1.410       .  A
C482        F483   1.357       .  S
C487        C488   1.404       .  A
C487        C492   1.391       .  A
C488        C489   1.410       .  A
C489        C490   1.406       .  A
C489        F496   1.357       .  S
C490        C491   1.408       .  A
C490        H495   1.083       .  S
C491        C492   1.409       .  A
C497       C1034   1.408       .  A
C497        C502   1.400       .  A
C497        H504   1.083       .  S
C498       C1033   1.408   1_455  A
C498        C499   1.412       .  A
C499        C500   1.398       .  A
C499        F506   1.357       .  S
C500        C501   1.400       .  A
C500        H505   1.084       .  S
C501       C1038   1.402   1_455  A
C502       C1037   1.402       .  A
C502        F503   1.357       .  S
C507        C508   1.411       .  A
C507        C512   1.398       .  A
C507        H514   1.079       .  S
C508        C805   1.532       .  S
C508       C1045   1.414   1_455  A
C509       C1044   1.414       .  A
C509        C510   1.397       .  A
C509        F516   1.357       .  S
C510       C1047   1.404       .  A
C510        H515   1.084       .  S
C511       C1046   1.404   1_455  A
C511        C512   1.406       .  A
C512        F513   1.357       .  S
C517        C518   1.405       .  A
C517        C522   1.406       .  A
C517        H524   1.083       .  S
C518        C519   1.406       .  A
C519        C520   1.394       .  A
C519        F526   1.358       .  S
C520        C521   1.407       .  A
C520        H525   1.083       .  S
C521        C522   1.411       .  A
C522        F523   1.357       .  S
C527        C528   1.406       .  A
C527        C532   1.402       .  A
C527        H534   1.082       .  S
C529        C530   1.399       .  A
C529        F536   1.357       .  S
C530        H535   1.083       .  S
C531        C532   1.404       .  A
C532        F533   1.358       .  S
C537        C538   1.539   1_455  S
C537        C543   1.532       .  S
C538        H545   1.085       .  S
C538        C807   1.370       .  D
C539        C540   1.546   1_665  S
C539        C806   1.370       .  D
C539        C796   1.492   1_565  S
C540        H546   1.110       .  S
C541        H547   1.083       .  S
C541        C810   1.367       .  D
C542        C809   1.367       .  D
C542        C786   1.486   1_565  S
C543        H548   1.087       .  S
C544        C769   1.474       .  S
O549       Ni557   1.910       .  S
O549        C827   1.281       .  A
O550       Ni557   1.914       .  S
O550        C828   1.279       .  A
O551       Ni557   1.908       .  S
O551        C829   1.280       .  A
O552       Ni557   1.907       .  S
O552        C830   1.281       .  A
O553       Ni558   1.927       .  S
O553        C562   1.283       .  A
O554       Ni558   1.934       .  S
O554        C561   1.285       .  A
O555       Ni558   1.927       .  S
O555        C560   1.282       .  A
O556       Ni558   1.926       .  S
O556        C559   1.283       .  A
Ni557      Ni826   2.385       .  S
Ni558      Ni825   2.385   1_545  S
C559        O817   1.281       .  A
C559        C746   1.487       .  S
C560        O818   1.279   1_545  A
C560        C799   1.471       .  S
C561        O819   1.280   1_545  A
C561        C789   1.489       .  S
C562        O820   1.281       .  A
C562        C756   1.485       .  S
O563       Ni571   1.904       .  S
O563        C841   1.280       .  A
O564       Ni571   1.907       .  S
O564        C842   1.280       .  A
O565       Ni571   1.913       .  S
O565        C843   1.282       .  A
O566       Ni571   1.914       .  S
O566        C844   1.280       .  A
O567       Ni572   1.922       .  S
O567        C576   1.281       .  A
O568       Ni572   1.918       .  S
O568        C575   1.281       .  A
O569       Ni572   1.928       .  S
O569        C574   1.284       .  A
O570       Ni572   1.933       .  S
O570        C573   1.284       .  A
Ni571      Ni840   2.386       .  S
Ni572      Ni839   2.386   1_545  S
C573        O831   1.280   1_545  A
C573        C739   1.487       .  S
C574        O832   1.280       .  A
C574        C706   1.483       .  S
C575        O833   1.282       .  A
C575        C716   1.483       .  S
C576        O834   1.280   1_545  A
C576        C726   1.467       .  S
O577       Ni853   1.911   1_546  S
O578       Ni585   1.909       .  S
O579       Ni585   1.915   1_556  S
O580       Ni853   1.912   1_545  S
O581       Ni854   1.917   1_545  S
O581        C590   1.281       .  A
O582       Ni586   1.919   1_556  S
O582        C589   1.282       .  A
O583       Ni586   1.917       .  S
O583        C588   1.281       .  A
O584       Ni854   1.919   1_546  S
O584        C587   1.282       .  A
Ni585       O845   1.911   1_554  S
Ni585       O848   1.912       .  S
Ni586       O849   1.917       .  S
Ni586       O852   1.919   1_554  S
C587        C669   1.484       .  S
C588        C686   1.480       .  S
C589        C676   1.485       .  S
C590        C696   1.482       .  S
O591       Ni599   1.909       .  S
O592       Ni599   1.908       .  S
O593       Ni599   1.905       .  S
O594       Ni599   1.904       .  S
O595       Ni600   1.920       .  S
O595        C604   1.282       .  A
O596       Ni600   1.925       .  S
O596        C603   1.283       .  A
O597       Ni600   1.915       .  S
O597        C602   1.281       .  A
O598       Ni600   1.920       .  S
O598        C601   1.282       .  A
C601        C699   1.483       .  S
C602        C646   1.475       .  S
C603        C659   1.476   1_655  S
C604        C689   1.479       .  S
C605        C611   1.528       .  S
C605        C609   1.536   1_455  S
C605        C649   1.527   1_455  S
C606        H613   1.081       .  S
C606        C875   1.367       .  D
C607        C874   1.367       .  D
C607        C736   1.487   1_565  S
C608        C612   1.537       .  S
C608        C610   1.543   1_445  S
C609        H615   1.086       .  S
C609        C878   1.368       .  D
C610        C877   1.368       .  D
C610        C729   1.485   1_565  S
C611        C880   1.362       .  D
C612        C879   1.362   1_545  D
C612        C656   1.473       .  S
O617       Ni625   1.916       .  S
O618       Ni625   1.914       .  S
O619       Ni625   1.922       .  S
O620       Ni625   1.924       .  S
O621       Ni626   1.915       .  S
O621        C630   1.281       .  A
O622       Ni626   1.914       .  S
O622        C629   1.281       .  A
O623       Ni626   1.918       .  S
O623        C628   1.282       .  A
O624       Ni626   1.919       .  S
O624        C627   1.282       .  A
C627        C779   1.484       .  S
C628        C666   1.484       .  S
C629        C679   1.486       .  S
C630        C766   1.487       .  S
O631       Ni639   1.901   1_655  S
O631        C909   1.279       .  A
O632        C910   1.278       .  A
O633        C911   1.280       .  A
O634       Ni639   1.907   1_655  S
O634        C912   1.280       .  A
O635       Ni640   1.930   1_655  S
O635        C644   1.284       .  A
O636        C643   1.283       .  A
O637        C642   1.285       .  A
O638       Ni640   1.933   1_655  S
O638        C641   1.284       .  A
Ni639      Ni908   2.384       .  S
Ni640      Ni907   2.384       .  S
C641        O899   1.279       .  A
C641        C759   1.486       .  S
C642        O900   1.278       .  A
C642        C719   1.484       .  S
C643        O901   1.280       .  A
C643        C749   1.487       .  S
C644        O902   1.280       .  A
C644        C709   1.484       .  S
C645        C646   1.402       .  A
C645        C650   1.396       .  A
C645        H652   1.084       .  S
C647        C648   1.393       .  A
C647        F654   1.358       .  S
C648        H653   1.078       .  S
C649        C650   1.413       .  A
C650        F651   1.358       .  S
C655        C656   1.402   1_655  A
C655        C660   1.402       .  A
C655        H662   1.083       .  S
C657        C658   1.392       .  A
C657        F664   1.358       .  S
C658        H663   1.083       .  S
C659        C660   1.408   1_455  A
C660        F661   1.357       .  S
C665        C670   1.397       .  A
C665        H672   1.083       .  S
C666        C667   1.409       .  A
C667        C668   1.398       .  A
C667        F674   1.357       .  S
C668        H673   1.083       .  S
C669        C670   1.408       .  A
C670        F671   1.357       .  S
C675        C680   1.397       .  A
C675        H682   1.083       .  S
C676        C677   1.410       .  A
C677        C678   1.400       .  A
C677        F684   1.357       .  S
C678        H683   1.083       .  S
C679        C680   1.410       .  A
C680        F681   1.357       .  S
C685        C686   1.407       .  A
C685        C690   1.399       .  A
C685        H692   1.083       .  S
C687        C688   1.392       .  A
C687        F694   1.358       .  S
C688        H693   1.083       .  S
C689        C690   1.408       .  A
C690        F691   1.357       .  S
C695        C700   1.395       .  A
C695        H702   1.083       .  S
C696        C697   1.409       .  A
C697        C698   1.399       .  A
C697        F704   1.357       .  S
C698        C699   1.406       .  A
C698        H703   1.083       .  S
C700        F701   1.357       .  S
C705        C706   1.407       .  A
C705        C710   1.403       .  A
C705        H712   1.082       .  S
C706        C707   1.408       .  A
C707        C708   1.394       .  A
C707        F714   1.358   1_545  S
C708        C709   1.406       .  A
C708        H713   1.082   1_545  S
C709        C710   1.409       .  A
C710        F711   1.357       .  S
C715        C716   1.403       .  A
C715        C720   1.392       .  A
C715        H722   1.083   1_545  S
C716        C717   1.411       .  A
C717        C718   1.403       .  A
C717        F724   1.357       .  S
C718        C719   1.406       .  A
C718        H723   1.083       .  S
C719        C720   1.410       .  A
C720        F721   1.358   1_545  S
C725        C726   1.402       .  A
C725        C730   1.400       .  A
C725        H732   1.083       .  S
C726        C727   1.401       .  A
C727        C728   1.397   1_545  A
C727        F734   1.358   1_545  S
C728        C729   1.408   1_565  A
C728        H733   1.083       .  S
C729        C730   1.407       .  A
C730        F731   1.357       .  S
C735        C736   1.405       .  A
C735        C740   1.406       .  A
C735        H742   1.083       .  S
C736        C737   1.407   1_545  A
C737        C738   1.391       .  A
C737        F744   1.358       .  S
C738        C739   1.405   1_565  A
C738        H743   1.083       .  S
C739        C740   1.411       .  A
C740        F741   1.357       .  S
C745        C746   1.408       .  A
C745        C750   1.404       .  A
C745        H752   1.083       .  S
C746        C747   1.409       .  A
C747        C748   1.393       .  A
C747       F1022   1.357   1_545  S
C748        C749   1.405       .  A
C748        H753   1.083   1_545  S
C749        C750   1.410       .  A
C750        F751   1.357       .  S
F754       C1015   1.357       .  S
C755        C756   1.404       .  A
C755        C760   1.391       .  A
C755       H1030   1.083   1_545  S
C756        C757   1.410       .  A
C757        C758   1.406       .  A
C757        F764   1.357       .  S
C758        C759   1.408       .  A
C758        H763   1.083       .  S
C759        C760   1.409       .  A
C760       F1029   1.358   1_545  S
F761       C1028   1.358       .  S
H762       C1023   1.083       .  S
C765        C770   1.400       .  A
C765        H772   1.083       .  S
C766        C767   1.412       .  A
C767        C768   1.398       .  A
C767        F774   1.357       .  S
C768        C769   1.400       .  A
C768        H773   1.084       .  S
C770        F771   1.357       .  S
C775        C776   1.411       .  A
C775        C780   1.398       .  A
C775        H782   1.079       .  S
C777        C778   1.397       .  A
C777        F784   1.357       .  S
C778        H783   1.084       .  S
C779        C780   1.406       .  A
C780        F781   1.357       .  S
C785        C786   1.404       .  A
C785        C790   1.406       .  A
C785        H792   1.083       .  S
C786        C787   1.406   1_545  A
C787        C788   1.394       .  A
C787        F794   1.358       .  S
C788        C789   1.407   1_565  A
C788        H793   1.083       .  S
C789        C790   1.411       .  A
C790        F791   1.357       .  S
C795        C796   1.406       .  A
C795        C800   1.402       .  A
C795        H802   1.082       .  S
C796       C1065   1.413   1_545  A
C797       C1064   1.413       .  A
C797        C798   1.399       .  A
C797        F804   1.357       .  S
C798       C1067   1.399       .  A
C798        H803   1.083       .  S
C799       C1066   1.399   1_545  A
C799        C800   1.404       .  A
C800        F801   1.358       .  S
C805        C806   1.539   1_455  S
C805        C811   1.532       .  S
C806        H813   1.085       .  S
C807        C808   1.546   1_655  S
C807       C1064   1.492       .  S
C808        H814   1.110       .  S
C809        H815   1.083       .  S
C810       C1054   1.486       .  S
C811        H816   1.087       .  S
C812       C1037   1.474       .  S
O817       Ni825   1.910   1_545  S
O818       Ni825   1.914       .  S
O819       Ni825   1.908       .  S
O820       Ni825   1.907   1_545  S
O821       Ni826   1.927       .  S
O821        C830   1.283       .  A
O822       Ni826   1.935       .  S
O822        C829   1.285       .  A
O823       Ni826   1.927       .  S
O823        C828   1.282       .  A
O824       Ni826   1.926       .  S
O824        C827   1.283       .  A
C827       C1014   1.488       .  S
C828       C1067   1.471       .  S
C829       C1057   1.489       .  S
C830       C1024   1.485       .  S
O831       Ni839   1.904       .  S
O832       Ni839   1.907   1_545  S
O833       Ni839   1.913   1_545  S
O834       Ni839   1.914       .  S
O835       Ni840   1.922       .  S
O835        C844   1.281       .  A
O836       Ni840   1.918       .  S
O836        C843   1.281       .  A
O837       Ni840   1.928       .  S
O837        C842   1.284       .  A
O838       Ni840   1.933       .  S
O838        C841   1.284       .  A
C841       C1007   1.487       .  S
C842        C974   1.483       .  S
C843        C984   1.483       .  S
C844        C994   1.467       .  S
O846       Ni853   1.909       .  S
O847       Ni853   1.915   1_556  S
O849        C858   1.281       .  A
O850       Ni854   1.919   1_556  S
O850        C857   1.282       .  A
O851       Ni854   1.917       .  S
O851        C856   1.281       .  A
O852        C855   1.282       .  A
C855        C937   1.484       .  S
C856        C954   1.480       .  S
C857        C944   1.485       .  S
C858        C964   1.482       .  S
O859       Ni867   1.909       .  S
O860       Ni867   1.908       .  S
O861       Ni867   1.905       .  S
O862       Ni867   1.904       .  S
O863       Ni868   1.920       .  S
O863        C872   1.282       .  A
O864       Ni868   1.925       .  S
O864        C871   1.283       .  A
O865       Ni868   1.915       .  S
O865        C870   1.281       .  A
O866       Ni868   1.920       .  S
O866        C869   1.282       .  A
C869        C967   1.483       .  S
C870        C914   1.475       .  S
C871        C927   1.476   1_655  S
C872        C957   1.479       .  S
C873        C879   1.528       .  S
C873        C877   1.536   1_455  S
C873        C917   1.527   1_455  S
C874        H881   1.081       .  S
C875       C1004   1.487       .  S
C876        C880   1.537       .  S
C876        C878   1.543   1_455  S
C877        H883   1.086       .  S
C878        C997   1.485       .  S
C880        C924   1.473       .  S
O885       Ni893   1.915       .  S
O886       Ni893   1.914       .  S
O887       Ni893   1.922       .  S
O888       Ni893   1.924       .  S
O889       Ni894   1.915       .  S
O889        C898   1.281       .  A
O890       Ni894   1.914       .  S
O890        C897   1.281       .  A
O891       Ni894   1.918       .  S
O891        C896   1.282       .  A
O892       Ni894   1.919       .  S
O892        C895   1.282       .  A
C895       C1047   1.484       .  S
C896        C934   1.484       .  S
C897        C947   1.486       .  S
C898       C1034   1.487       .  S
O899       Ni907   1.901   1_655  S
O902       Ni907   1.907   1_655  S
O903       Ni908   1.930   1_655  S
O903        C912   1.284       .  A
O904        C911   1.283       .  A
O905        C910   1.285       .  A
O906       Ni908   1.933   1_655  S
O906        C909   1.284       .  A
C909       C1027   1.486       .  S
C910        C987   1.484       .  S
C911       C1017   1.487       .  S
C912        C977   1.484       .  S
C913        C914   1.402       .  A
C913        C918   1.396       .  A
C913        H920   1.084       .  S
C915        C916   1.393       .  A
C915        F922   1.358       .  S
C916        H921   1.078       .  S
C917        C918   1.413       .  A
C918        F919   1.358       .  S
C923        C924   1.402   1_655  A
C923        C928   1.402       .  A
C923        H930   1.083       .  S
C925        C926   1.392       .  A
C925        F932   1.358       .  S
C926        H931   1.083       .  S
C927        C928   1.408   1_455  A
C928        F929   1.357       .  S
C933        C938   1.397       .  A
C933        H940   1.083       .  S
C934        C935   1.409       .  A
C935        C936   1.398       .  A
C935        F942   1.357       .  S
C936        H941   1.083       .  S
C937        C938   1.408       .  A
C938        F939   1.357       .  S
C943        C948   1.397       .  A
C943        H950   1.083       .  S
C944        C945   1.410       .  A
C945        C946   1.400       .  A
C945        F952   1.357       .  S
C946        H951   1.083       .  S
C947        C948   1.410       .  A
C948        F949   1.357       .  S
C953        C954   1.407       .  A
C953        C958   1.399       .  A
C953        H960   1.083       .  S
C955        C956   1.392       .  A
C955        F962   1.358       .  S
C956        H961   1.083       .  S
C957        C958   1.408       .  A
C958        F959   1.357       .  S
C963        C968   1.395       .  A
C963        H970   1.083       .  S
C964        C965   1.409       .  A
C965        C966   1.399       .  A
C965        F972   1.357       .  S
C966        C967   1.406       .  A
C966        H971   1.083       .  S
C968        F969   1.357       .  S
C973        C974   1.407       .  A
C973        C978   1.403       .  A
C973        H980   1.082       .  S
C974        C975   1.408       .  A
C975        C976   1.394       .  A
C975        F982   1.358       .  S
C976        C977   1.406       .  A
C976        H981   1.082       .  S
C977        C978   1.409       .  A
C978        F979   1.357       .  S
C983        C984   1.403       .  A
C983        C988   1.392       .  A
C983        H990   1.083       .  S
C984        C985   1.411       .  A
C985        C986   1.403       .  A
C985        F992   1.357       .  S
C986        C987   1.406       .  A
C986        H991   1.083       .  S
C987        C988   1.410       .  A
C988        F989   1.358       .  S
C993        C994   1.402       .  A
C993        C998   1.400       .  A
C993       H1000   1.083       .  S
C994        C995   1.401       .  A
C995        C996   1.397       .  A
C995       F1002   1.358       .  S
C996        C997   1.408       .  A
C996       H1001   1.083       .  S
C997        C998   1.407       .  A
C998        F999   1.357       .  S
C1003      C1004   1.405       .  A
C1003      C1008   1.406       .  A
C1003      H1010   1.083       .  S
C1004      C1005   1.407       .  A
C1005      C1006   1.391       .  A
C1005      F1012   1.358       .  S
C1006      C1007   1.405       .  A
C1006      H1011   1.083       .  S
C1007      C1008   1.411       .  A
C1008      F1009   1.357       .  S
C1013      C1014   1.408       .  A
C1013      C1018   1.404       .  A
C1013      H1020   1.083       .  S
C1014      C1015   1.409       .  A
C1015      C1016   1.393       .  A
C1016      C1017   1.405       .  A
C1016      H1021   1.083       .  S
C1017      C1018   1.410       .  A
C1018      F1019   1.357       .  S
C1023      C1024   1.404       .  A
C1023      C1028   1.391       .  A
C1024      C1025   1.410       .  A
C1025      C1026   1.406       .  A
C1025      F1032   1.357       .  S
C1026      C1027   1.408       .  A
C1026      H1031   1.083       .  S
C1027      C1028   1.409       .  A
C1033      C1038   1.400       .  A
C1033      H1040   1.083       .  S
C1034      C1035   1.412       .  A
C1035      C1036   1.398       .  A
C1035      F1042   1.357       .  S
C1036      C1037   1.400       .  A
C1036      H1041   1.084       .  S
C1038      F1039   1.357       .  S
C1043      C1044   1.411       .  A
C1043      C1048   1.398       .  A
C1043      H1050   1.079       .  S
C1045      C1046   1.397       .  A
C1045      F1052   1.357       .  S
C1046      H1051   1.084       .  S
C1047      C1048   1.406       .  A
C1048      F1049   1.357       .  S
C1053      C1054   1.405       .  A
C1053      C1058   1.406       .  A
C1053      H1060   1.083       .  S
C1054      C1055   1.406       .  A
C1055      C1056   1.394       .  A
C1055      F1062   1.358       .  S
C1056      C1057   1.407       .  A
C1056      H1061   1.083       .  S
C1057      C1058   1.411       .  A
C1058      F1059   1.357       .  S
C1063      C1064   1.406       .  A
C1063      C1068   1.402       .  A
C1063      H1070   1.082       .  S
C1065      C1066   1.399       .  A
C1065      F1072   1.357       .  S
C1066      H1071   1.083       .  S
C1067      C1068   1.404       .  A
C1068      F1069   1.358       .  S
