geometry optimzed in LAMMPS
_audit_creation_date              2020-11-30 
_audit_creation_method            'lammps2cif' 
_symmetry_space_group_name_H-M    'P1' 
_symmetry_Int_Tables_number       1 
_symmetry_cell_setting            triclinic 
loop_ 
_symmetry_equiv_pos_as_xyz 
  x,y,z 
_cell_length_a                    36.28550104 
_cell_length_b                    36.10344962518118 
_cell_length_c                    53.56837728592562 
_cell_angle_alpha                 88.4342263164128 
_cell_angle_beta                  90.73490806899427 
_cell_angle_gamma                 119.70523882451812 
loop_ 
_atom_site_label 
_atom_site_type_symbol 
_atom_site_fract_x 
_atom_site_fract_y 
_atom_site_fract_z 
_atom_site_charge 
C1          C  0.99877522  0.00628076  0.77210320     0.46100
H2          H  0.99449133  0.00077122  0.79247340    -0.02900
C3          C  0.00640262  0.49176702  0.72468330     0.46200
H4          H  0.01030969  0.49552268  0.70416939    -0.02900
C5          C  0.44682125  0.46712309  0.75774522    -0.16600
C6          C  0.01355524  0.05320919  0.76541778    -0.16300
C7          C  0.03271951  0.99740065  0.76074436    -0.16700
C8          C  0.45142861  0.47530745  0.73248864    -0.16700
C9          C  0.01872984  0.06226702  0.74025911    -0.16300
C10         C  0.03627343  0.00464526  0.73494805    -0.16600
Zn11       Zn  0.39424926  0.24119635  0.98610361     1.49700
Zn12       Zn  0.35706046  0.14081477  0.98549886     1.49400
Zn13       Zn  0.34937999  0.18408152  0.03391769     1.49100
Zn14       Zn  0.29514192  0.17874733  0.98486681     1.49500
O15         O  0.34872421  0.18603797  0.99748716    -1.83500
O16         O  0.43233012  0.23375925  0.96290671    -0.74100
O17         O  0.34804138  0.09867658  0.01338951    -0.73900
O18         O  0.40638462  0.22823705  0.04731010    -0.73400
O19         O  0.41488351  0.16559275  0.96940802    -0.74100
O20         O  0.43509502  0.27064467  0.01393100    -0.73700
O21         O  0.33691327  0.12615068  0.04723865    -0.74300
O22         O  0.26169377  0.18235144  0.01324127    -0.73700
O23         O  0.31135741  0.10422323  0.96156089    -0.74400
O24         O  0.30423440  0.19556685  0.04625661    -0.73800
O25         O  0.26227730  0.12373981  0.96527253    -0.74300
O26         O  0.30394028  0.22979661  0.96438583    -0.74200
O27         O  0.37165668  0.27841432  0.97064594    -0.74000
C28         C  0.43979652  0.20309391  0.96077981     0.77800
C29         C  0.33806832  0.09587428  0.03633846     0.78300
C30         C  0.43691830  0.26078556  0.03669120     0.77200
C31         C  0.27116102  0.19273860  0.03591297     0.77600
C32         C  0.27449160  0.09869251  0.95706978     0.78800
C33         C  0.33460385  0.26789818  0.96253682     0.77800
C34         C  0.31978171  0.33792296  0.91697173     0.80900
N35         N  0.29580891  0.34955039  0.93040292    -0.77400
C36         C  0.28720411  0.33729348  0.95476830     0.83300
N37         N  0.30166074  0.31228013  0.96539101    -0.77400
C38         C  0.32537626  0.30026961  0.95195760     0.83400
N39         N  0.33434663  0.31306867  0.92768561    -0.79100
Zn40       Zn  0.23186546  0.35944646  0.02004938     1.49700
Zn41       Zn  0.17866875  0.35303260  0.97130729     1.49400
Zn42       Zn  0.13351066  0.29394291  0.01888267     1.49100
Zn43       Zn  0.16532963  0.39283019  0.02078017     1.49500
O44         O  0.17731709  0.35000154  0.00781375    -1.83500
O45         O  0.26592782  0.35466434  0.99211344    -0.74100
O46         O  0.12332998  0.30708111  0.95707864    -0.73900
O47         O  0.15943310  0.25950543  0.03357472    -0.73400
O48         O  0.22669786  0.34566766  0.95815286    -0.74100
O49         O  0.22484592  0.31120584  0.04258445    -0.73700
O50         O  0.09398686  0.26436860  0.99032728    -0.74300
O51         O  0.10813964  0.36507262  0.03929990    -0.73700
O52         O  0.18693129  0.41004968  0.95950371    -0.74400
O53         O  0.09414494  0.29768386  0.04342466    -0.73800
O54         O  0.16984640  0.43392853  0.99291193    -0.74300
O55         O  0.21270249  0.43272854  0.04275647    -0.74200
O56         O  0.26395166  0.41665341  0.03705118    -0.74000
C57         C  0.25885839  0.34710447  0.96896122     0.77800
C58         C  0.09294031  0.27401111  0.96739233     0.78300
C59         C  0.19600411  0.27216623  0.04315794     0.77200
C60         C  0.08499435  0.32677291  0.04747773     0.77600
C61         C  0.18164845  0.43815075  0.97020170     0.78800
C62         C  0.25091993  0.44099338  0.04528800     0.77800
C63         C  0.21227146  0.20260563  0.08830941     0.80900
N64         N  0.23560117  0.19083070  0.07445632    -0.77400
C65         C  0.24422351  0.20366989  0.05026535     0.83300
N66         N  0.23010136  0.22907799  0.03992871    -0.77400
C67         C  0.20691369  0.24116800  0.05373606     0.83400
N68         N  0.19780503  0.22771782  0.07788453    -0.79100
C69         C  0.21247943  0.02575030  0.90644791     0.80900
N70         N  0.17783107  0.47619571  0.93265456    -0.77400
C71         C  0.19195848  0.47760907  0.95632929     0.83300
N72         N  0.23011742  0.02171742  0.95544712    -0.77400
C73         C  0.24497182  0.06025358  0.94372312     0.83400
N74         N  0.23585278  0.06225957  0.91927010    -0.79100
C75         C  0.51060845  0.32222295  0.08718265     0.80900
N76         N  0.47428763  0.29750351  0.07445411    -0.77400
C77         C  0.47597521  0.28704509  0.05059605     0.83300
N78         N  0.51418606  0.30118773  0.03947368    -0.77400
C79         C  0.04366481  0.31350564  0.05901002     0.82000
N80         N  0.03978242  0.32047664  0.08345237    -0.79100
C81         C  0.01989175  0.21178468  0.91660111     0.80900
N82         N  0.47984746  0.19554490  0.92712577    -0.77400
C83         C  0.47962375  0.21241148  0.94926726     0.83300
N84         N  0.01600106  0.23471071  0.96372050    -0.77400
C85         C  0.05434148  0.24748174  0.95312094     0.83400
N86         N  0.05632183  0.23612560  0.92943962    -0.79100
C87         C  0.31982788  0.52083996  0.09091790     0.80900
N88         N  0.33644254  0.05362054  0.07366428    -0.77400
C89         C  0.32443455  0.05524578  0.04973179     0.83300
N90         N  0.29360533  0.51837094  0.04315455    -0.77400
C91         C  0.28092436  0.48146074  0.05643724     0.83400
N92         N  0.29411115  0.48271335  0.08030230    -0.79100
Zn93       Zn  0.32875186  0.10055942  0.51403640     1.49700
Zn94       Zn  0.36490533  0.20006405  0.51457700     1.49400
Zn95       Zn  0.31758150  0.14799658  0.46594516     1.49100
Zn96       Zn  0.26603928  0.13851705  0.51645886     1.49500
O97         O  0.31913499  0.14660703  0.50268666    -1.83500
O98         O  0.38540004  0.12279984  0.53237706    -0.74100
O99         O  0.40471073  0.23123263  0.48603732    -0.73900
O100        O  0.30614845  0.09088890  0.45242677    -0.73400
O101        O  0.40198066  0.19007750  0.53878894    -0.74100
O102        O  0.32240570  0.06283321  0.48541615    -0.73700
O103        O  0.37398712  0.19495358  0.45175803    -0.74300
O104        O  0.23147961  0.14553505  0.48926077    -0.73700
O105        O  0.34284034  0.23610589  0.53047102    -0.74400
O106        O  0.27057318  0.15955954  0.45483679    -0.73800
O107        O  0.27545500  0.18716113  0.53785179    -0.74300
O108        O  0.23311784  0.08115192  0.53503400    -0.74200
O109        O  0.28092921  0.05942871  0.53597120    -0.74000
C110        C  0.40920209  0.15917299  0.54187250     0.77800
C111        C  0.40536761  0.22532088  0.46275235     0.78300
C112        C  0.31034795  0.06097396  0.46282296     0.77200
C113        C  0.23874065  0.15687040  0.46634990     0.77600
C114        C  0.30627598  0.22507534  0.53937119     0.78800
C115        C  0.24447486  0.05392067  0.54130031     0.77800
C116        C  0.30480326  0.30094513  0.58386575     0.80900
N117        N  0.27685728  0.31072436  0.57248515    -0.77400
C118        C  0.26022585  0.29447120  0.54995665     0.83300
N119        N  0.27081178  0.26748402  0.53904352    -0.77400
C120        C  0.29801807  0.25687186  0.55051865     0.83400
N121        N  0.31500446  0.27368100  0.57290440    -0.79100
Zn122      Zn  0.10367640  0.26029458  0.48881045     1.49700
Zn123      Zn  0.13970626  0.36021053  0.48765204     1.49400
Zn124      Zn  0.15127123  0.31321464  0.53672137     1.49100
Zn125      Zn  0.20291613  0.32343288  0.48708637     1.49500
O126        O  0.14923129  0.31437407  0.50012208    -1.83500
O127        O  0.06471024  0.26902831  0.46526981    -0.74100
O128        O  0.14572322  0.39846568  0.51576233    -0.73900
O129        O  0.09477453  0.26653135  0.55106547    -0.73400
O130        O  0.08379353  0.33768099  0.46843909    -0.74100
O131        O  0.06479894  0.22806850  0.51739662    -0.73700
O132        O  0.16284275  0.37077910  0.54868664    -0.74300
O133        O  0.23774818  0.31675126  0.51418946    -0.73700
O134        O  0.18770421  0.40148156  0.46587395    -0.74400
O135        O  0.19903506  0.30261752  0.54869481    -0.73800
O136        O  0.23578816  0.38030913  0.46851653    -0.74300
O137        O  0.19408755  0.27577522  0.46556609    -0.74200
O138        O  0.12709973  0.22558681  0.47306115    -0.74000
C139        C  0.05862972  0.30036056  0.46053268     0.77800
C140        C  0.15885248  0.40072066  0.53813523     0.78300
C141        C  0.06386133  0.23498800  0.54048230     0.77200
C142        C  0.23106553  0.30578913  0.53715275     0.77600
C143        C  0.22442234  0.40708332  0.46131681     0.78800
C144        C  0.16386453  0.23760222  0.46416203     0.77800
C145        C  0.17762617  0.97244739  0.58884056     0.80900
N146        N  0.16631247  0.44042943  0.57601859    -0.77400
C147        C  0.17339702  0.44068543  0.55121920     0.83300
N148        N  0.20125189  0.97675619  0.54061545    -0.77400
C149        C  0.21433380  0.01324893  0.55328443     0.83400
N150        N  0.20236567  0.01112927  0.57741017    -0.79100
C151        C  0.98618406  0.18129738  0.59213044     0.80900
N152        N  0.02372204  0.20401679  0.57962809    -0.77400
C153        C  0.02434328  0.20747790  0.55429765     0.83300
N154        N  0.98720239  0.18898892  0.54149818    -0.77400
C155        C  0.44811355  0.16774738  0.55510055     0.83400
N156        N  0.44849664  0.16381108  0.58036251    -0.79100
C157        C  0.48355682  0.29971607  0.41585469     0.80900
N158        N  0.01979383  0.30967493  0.42490245    -0.77400
C159        C  0.01934736  0.29151108  0.44750097     0.83300
N160        N  0.48205742  0.26060662  0.46005383    -0.77400
C161        C  0.44503451  0.25284709  0.44918947     0.83400
N162        N  0.44568239  0.27193884  0.42682017    -0.79100
C163        C  0.17682961  0.17355391  0.41659066     0.80900
N164        N  0.20125747  0.16029498  0.42895924    -0.77400
C165        C  0.21078926  0.16940458  0.45332219     0.83300
N166        N  0.19692420  0.19308651  0.46511945    -0.77400
C167        C  0.17304838  0.20698324  0.45264267     0.83400
N168        N  0.16336885  0.19747884  0.42835237    -0.79100
C169        C  0.29322475  0.48294173  0.41228574     0.80900
N170        N  0.31355926  0.02158650  0.42662130    -0.77400
C171        C  0.29773754  0.02136166  0.44953418     0.83300
N172        N  0.26866326  0.48439984  0.45962765    -0.77400
C173        C  0.25461757  0.44656291  0.44835359     0.83400
N174        N  0.26734381  0.44584987  0.42483617    -0.79100
C175        C  0.00191475  0.99987986  0.22648880     0.46100
H176        H  0.99849998  0.99899150  0.20595198    -0.02900
C177        C  0.00919141  0.99825777  0.27437396     0.46200
H178        H  0.01173244  0.99680677  0.29502577    -0.02900
C179        C  0.47019976  0.00742347  0.23977907    -0.16600
C180        C  0.99920243  0.47075376  0.23438265    -0.16300
C181        C  0.04178312  0.03981226  0.23588144    -0.16700
C182        C  0.47628913  0.51398233  0.26730638    -0.16700
C183        C  0.00307670  0.46975743  0.25985695    -0.16300
C184        C  0.04597334  0.03853679  0.26155007    -0.16600
C185        C  0.33566998  0.00179088  0.34693616    -0.11200
C186        C  0.34900652  0.47885353  0.34312801     0.11400
C187        C  0.34849547  0.45407035  0.36423002    -0.03000
C188        C  0.32835485  0.45524990  0.38606724    -0.05800
C189        C  0.30991612  0.48116521  0.38769245    -0.16500
C190        C  0.31779043  0.00509764  0.36940365     0.02400
C191        C  0.37909708  0.48800374  0.32231587     0.12300
C192        C  0.37007709  0.42729209  0.36394955     0.63000
H193        H  0.32844851  0.43722683  0.40254884     0.12400
C194        C  0.29658384  0.03223852  0.37014116     0.55100
H195        H  0.33558341  0.01979247  0.33044470     0.08200
C196        C  0.36836582  0.46516734  0.29993896    -0.05600
C197        C  0.40114001  0.47344711  0.28292372    -0.06400
C198        C  0.44313385  0.50699391  0.28634334    -0.16000
C199        C  0.45475293  0.03042466  0.30586709    -0.01600
C200        C  0.42533878  0.01968458  0.32517893    -0.09100
C201        C  0.32246817  0.43442704  0.29343473     0.65200
H202        H  0.39385822  0.45410490  0.26658194     0.10600
C203        C  0.49701895  0.07088883  0.30909513     0.63600
H204        H  0.43444564  0.03862022  0.34186471     0.08000
F205        F  0.29145378  0.04528221  0.34644884    -0.19500
F206        F  0.32121653  0.06823069  0.38386604    -0.15700
F207        F  0.25686904  0.00921551  0.38101737    -0.19200
F208        F  0.41278358  0.45276596  0.35873018    -0.22600
F209        F  0.35139240  0.39677085  0.34600493    -0.24100
F210        F  0.36646807  0.40641835  0.38662614    -0.18000
F211        F  0.49206234  0.10060007  0.32230963    -0.20500
F212        F  0.01099866  0.07545325  0.28939941    -0.21700
F213        F  0.52482655  0.06182795  0.32210641    -0.18900
F214        F  0.31904192  0.41376318  0.27140730    -0.19000
F215        F  0.30096773  0.45694439  0.29051534    -0.22800
F216        F  0.30314061  0.40386972  0.31216016    -0.24400
C217        C  0.11618160  0.12807426  0.35708347    -0.11200
C218        C  0.14924318  0.13370102  0.34138981     0.11400
C219        C  0.19170333  0.15626023  0.34949204    -0.03000
C220        C  0.19956906  0.16999791  0.37420721    -0.05800
C221        C  0.16628829  0.16275490  0.39032922    -0.16500
C222        C  0.12390408  0.14261827  0.38157262     0.02400
C223        C  0.13687363  0.11320582  0.31706639     0.12300
C224        C  0.22798919  0.16504999  0.33217562     0.63000
H225        H  0.23177246  0.18612867  0.38126531     0.12400
C226        C  0.08682595  0.13479441  0.39811340     0.55100
H227        H  0.08401773  0.11122297  0.35002636     0.08200
C228        C  0.12226920  0.06923298  0.31498675    -0.05600
C229        C  0.09652188  0.04821384  0.29475799    -0.06400
C230        C  0.08261549  0.06841214  0.27731101    -0.16000
C231        C  0.09965598  0.11347904  0.27868070    -0.01600
C232        C  0.12828785  0.13514170  0.29803608    -0.09100
C233        C  0.13016144  0.04197591  0.33412624     0.65200
H234        H  0.08337571  0.01417353  0.29431904     0.10600
C235        C  0.08628005  0.14038011  0.26285303     0.63600
H236        H  0.13990181  0.16895877  0.30014697     0.08000
F237        F  0.04824395  0.11190384  0.38608052    -0.19500
F238        F  0.09066137  0.17329233  0.40474361    -0.15700
F239        F  0.08607687  0.11189325  0.41941875    -0.19200
F240        F  0.22789559  0.18954249  0.31190296    -0.22600
F241        F  0.22339438  0.12709792  0.32380834    -0.24100
F242        F  0.26692778  0.18686504  0.34396855    -0.18000
F243        F  0.11942623  0.16742600  0.24730503    -0.20500
F244        F  0.55632351  0.12768032  0.24663261    -0.21700
F245        F  0.07684085  0.16480603  0.27822073    -0.18900
F246        F  0.15113594  0.02384840  0.32263778    -0.19000
F247        F  0.09167617  0.00961412  0.34310683    -0.22800
F248        F  0.15426731  0.06445891  0.35425389    -0.24400
C249        C  0.99553319  0.38032958  0.36225645    -0.11200
C250        C  0.48905442  0.36104906  0.34475834     0.11400
C251        C  0.47403330  0.31648977  0.34643646    -0.03000
C252        C  0.47203373  0.29754271  0.37009317    -0.05800
C253        C  0.48461666  0.32151622  0.39184916    -0.16500
C254        C  0.99341902  0.36240441  0.38618356     0.02400
C255        C  0.49412739  0.38494104  0.32077321     0.12300
C256        C  0.45955244  0.28724344  0.32426541     0.63000
H257        H  0.46104762  0.26362252  0.37155483     0.12400
C258        C  0.00047429  0.38893086  0.40911055     0.55100
H259        H  0.00299256  0.41326876  0.36018602     0.08200
C260        C  0.46186853  0.39234183  0.31120481    -0.05600
C261        C  0.47100070  0.42051965  0.29063059    -0.06400
C262        C  0.51110544  0.44140261  0.27924437    -0.16000
C263        C  0.03035632  0.42335580  0.28113739    -0.01600
C264        C  0.02569821  0.39730765  0.30234763    -0.09100
C265        C  0.41839307  0.37152250  0.32318347     0.65200
H266        H  0.44718619  0.42799000  0.28386898     0.10600
C267        C  0.06921054  0.43899282  0.26461843     0.63600
H268        H  0.05123410  0.39165705  0.30812873     0.08000
F269        F  0.96515666  0.36897574  0.42441705    -0.19500
F270        F  0.00724704  0.42931840  0.40288754    -0.15700
F271        F  0.03554836  0.39345669  0.42212492    -0.19200
F272        F  0.48368635  0.26738552  0.32292233    -0.22600
F273        F  0.46300512  0.30819669  0.30170826    -0.24100
F274        F  0.41749519  0.25635740  0.32763854    -0.18000
F275        F  0.05712069  0.41920795  0.24192365    -0.20500
F276        F  0.08891026  0.48250108  0.26063576    -0.21700
F277        F  0.60888605  0.43150790  0.28504140    -0.18900
F278        F  0.39150552  0.38252097  0.31061442    -0.19000
F279        F  0.91566772  0.37375661  0.34635716    -0.22800
F280        F  0.40028037  0.32768992  0.32286311    -0.24400
C281        C  0.39383053  0.02962365  0.20134655    -0.11200
C282        C  0.38081826  0.50407111  0.18747582     0.11400
C283        C  0.39031305  0.47077582  0.19079453    -0.03000
C284        C  0.41584550  0.47240372  0.21106306    -0.05800
C285        C  0.43157949  0.00033156  0.22524182    -0.16500
C286        C  0.41726298  0.03063640  0.22281101     0.02400
C287        C  0.36407907  0.51083262  0.16355760     0.12300
C288        C  0.37561941  0.43506165  0.17224526     0.63000
H289        H  0.42614169  0.44902132  0.21280667     0.12400
C290        C  0.42592282  0.06400010  0.24216573     0.55100
H291        H  0.38580742  0.05444669  0.19781542     0.08200
C292        C  0.32077885  0.49797568  0.15989420    -0.05600
C293        C  0.30745823  0.50268705  0.13583282    -0.06400
C294        C  0.33649645  0.52140844  0.11608877    -0.16000
C295        C  0.38106772  0.02276455  0.11466688    -0.01600
C296        C  0.39389915  0.01882730  0.13896299    -0.09100
C297        C  0.28922124  0.48027633  0.18131891     0.65200
H298        H  0.27425653  0.49186471  0.13219974     0.10600
C299        C  0.41201030  0.03528353  0.09304790     0.63600
H300        H  0.42632891  0.02632423  0.14242830     0.08000
F301        F  0.40043679  0.04460471  0.26275025    -0.19500
F302        F  0.41689974  0.09492100  0.23310205    -0.15700
F303        F  0.46775252  0.08449154  0.24940353    -0.19200
F304        F  0.39535033  0.45120753  0.14948019    -0.22600
F305        F  0.33223121  0.41583878  0.16897054    -0.24100
F306        F  0.38487318  0.40388996  0.18042652    -0.18000
F307        F  0.41940077  0.07369173  0.08243318    -0.20500
F308        F  0.39524700  0.00415040  0.07518748    -0.21700
F309        F  0.45059738  0.03976692  0.10063972    -0.18900
F310        F  0.24817735  0.46662951  0.17322653    -0.19000
F311        F  0.29957899  0.51170591  0.19858756    -0.22800
F312        F  0.29002180  0.44602913  0.19291217    -0.24400
C313        C  0.00998752  0.32798161  0.16333725    -0.11200
C314        C  0.49995153  0.37178598  0.15682115     0.11400
C315        C  0.49232108  0.38723100  0.13382185    -0.03000
C316        C  0.49524378  0.36919131  0.11159887    -0.05800
C317        C  0.50755462  0.33811113  0.11161110    -0.16500
C318        C  0.01709120  0.31399995  0.14051775     0.02400
C319        C  0.50399626  0.39409363  0.18038963     0.12300
C320        C  0.48301367  0.42391423  0.13258796     0.63000
H321        H  0.48944550  0.38035987  0.09379676     0.12400
C322        C  0.04912248  0.29871049  0.13920691     0.55100
H323        H  0.02908979  0.33013542  0.17953007     0.08200
C324        C  0.47037079  0.38180757  0.19760714    -0.05600
C325        C  0.47629769  0.40885347  0.21766205    -0.06400
C326        C  0.51469495  0.44700427  0.22083819    -0.16000
C327        C  0.02545654  0.44702820  0.19743482    -0.01600
C328        C  0.01987916  0.41454182  0.18165761    -0.09100
C329        C  0.42875518  0.34056648  0.19477412     0.65200
H330        H  0.45049114  0.40131451  0.23043435     0.10600
C331        C  0.06273517  0.49102467  0.19231886     0.63600
H332        H  0.03989486  0.42188764  0.16532642     0.08000
F333        F  0.06297274  0.29427596  0.16271799    -0.19500
F334        F  0.08409340  0.32774911  0.12551505    -0.15700
F335        F  0.03089683  0.25943701  0.12802121    -0.19200
F336        F  0.51794726  0.46080480  0.14061355    -0.22600
F337        F  0.44879417  0.41472634  0.14759548    -0.24100
F338        F  0.47351221  0.43156014  0.10854076    -0.18000
F339        F  0.09140357  0.49013838  0.17587132    -0.20500
F340        F  0.08976935  0.99825933  0.22926165    -0.21700
F341        F  0.04840502  0.51664330  0.18167869    -0.18900
F342        F  0.39935731  0.33612528  0.21254183    -0.19000
F343        F  0.43590344  0.30647156  0.19754252    -0.22800
F344        F  0.41147442  0.33926447  0.17145788    -0.24400
C345        C  0.09183880  0.10836209  0.17704320    -0.11200
C346        C  0.13422058  0.11964550  0.18027577     0.11400
C347        C  0.14804418  0.11100472  0.20327459    -0.03000
C348        C  0.11735301  0.08659429  0.22156454    -0.05800
C349        C  0.07375721  0.07229579  0.21780099    -0.16500
C350        C  0.06152966  0.08631016  0.19558968     0.02400
C351        C  0.16248424  0.14107447  0.15877212     0.12300
C352        C  0.19476847  0.12725647  0.20824044     0.63000
H353        H  0.12735785  0.07692204  0.23836314     0.12400
C354        C  0.01789426  0.08086086  0.19068224     0.55100
H355        H  0.08239036  0.11708681  0.15954282     0.08200
C356        C  0.16248555  0.11743408  0.13810841    -0.05600
C357        C  0.18157128  0.13950725  0.11588509    -0.06400
C358        C  0.19866373  0.18373418  0.11344241    -0.16000
C359        C  0.20060262  0.20771360  0.13436872    -0.01600
C360        C  0.18237199  0.18571617  0.15691764    -0.09100
C361        C  0.14063722  0.06900131  0.13902645     0.65200
H362        H  0.18089138  0.12196604  0.09963524     0.10600
C363        C  0.22119632  0.25597883  0.13285946     0.63600
H364        H  0.18108531  0.20294779  0.17282033     0.08000
F365        F  0.02111821  0.11634862  0.17805071    -0.19500
F366        F  0.99716426  0.07698180  0.21259045    -0.15700
F367        F  0.98944354  0.55860106  0.17326725    -0.19200
F368        F  0.21668985  0.17131947  0.20655441    -0.22600
F369        F  0.21099649  0.11152160  0.19088065    -0.24100
F370        F  0.20154990  0.11510484  0.23181203    -0.18000
F371        F  0.19600533  0.26762690  0.11899115    -0.20500
F372        F  0.26072747  0.27329972  0.12175192    -0.21700
F373        F  0.22662047  0.27319494  0.15629430    -0.18900
F374        F  0.14568216  0.05283130  0.11698770    -0.19000
F375        F  0.09761354  0.05198416  0.14295215    -0.22800
F376        F  0.15762764  0.05566847  0.15808840    -0.24400
C377        C  0.35526049  0.42274726  0.80214560    -0.11200
C378        C  0.36291574  0.39240417  0.81441230     0.11400
C379        C  0.38600503  0.37630462  0.80204670    -0.03000
C380        C  0.40791026  0.39747949  0.78008250    -0.05800
C381        C  0.40762022  0.43389243  0.77072833    -0.16500
C382        C  0.37649644  0.44292897  0.77973113     0.02400
C383        C  0.35026761  0.38099374  0.84089303     0.12300
C384        C  0.38990804  0.33909351  0.81296185     0.63000
H385        H  0.42825748  0.38799543  0.77129864     0.12400
C386        C  0.36414283  0.47150926  0.76508381     0.55100
H387        H  0.33442464  0.43202948  0.81090112     0.08200
C388        C  0.37649586  0.40581829  0.86075793    -0.05600
C389        C  0.36505416  0.39014381  0.88531868    -0.06400
C390        C  0.32872371  0.35109615  0.89063232    -0.16000
C391        C  0.30183841  0.32676371  0.87097524    -0.01600
C392        C  0.31287312  0.34268117  0.84634375    -0.09100
C393        C  0.41689206  0.44863904  0.85764412     0.65200
H394        H  0.38497334  0.40864682  0.90063544     0.10600
C395        C  0.26157964  0.28405324  0.87468506     0.63600
H396        H  0.29279115  0.32425245  0.83108028     0.08000
F397        F  0.33336545  0.47619718  0.77729950    -0.19500
F398        F  0.34796299  0.45347413  0.74225681    -0.15700
F399        F  0.39866895  0.51139619  0.76117222    -0.19200
F400        F  0.35004395  0.30383765  0.81601965    -0.22600
F401        F  0.41002141  0.34972114  0.83588637    -0.24100
F402        F  0.41285779  0.32777704  0.79755693    -0.18000
F403        F  0.22712748  0.28807219  0.86712652    -0.20500
F404        F  0.25491136  0.26892515  0.89912760    -0.21700
F405        F  0.26361475  0.25398590  0.86018204    -0.18900
F406        F  0.41300453  0.47866891  0.87110958    -0.19000
F407        F  0.42599935  0.46343635  0.83325159    -0.22800
F408        F  0.45082755  0.44528316  0.86703457    -0.24400
C409        C  0.05173730  0.14524597  0.81112359    -0.11200
C410        C  0.01407372  0.13324930  0.82391728     0.11400
C411        C  0.46788100  0.08121866  0.81875602    -0.03000
C412        C  0.47040183  0.05874620  0.79853781    -0.05800
C413        C  0.01569174  0.08312699  0.78491657    -0.16500
C414        C  0.05356764  0.12047340  0.79195179     0.02400
C415        C  0.01690653  0.15443123  0.84760698     0.12300
C416        C  0.42499156  0.07039394  0.82935192     0.63000
H417        H  0.44221951  0.03079986  0.79249756     0.12400
C418        C  0.09653272  0.13445594  0.78065083     0.55100
H419        H  0.08039896  0.17318476  0.81722508     0.08200
C420        C  0.02619235  0.13947069  0.87022834    -0.05600
C421        C  0.02830992  0.16029521  0.89231655    -0.06400
C422        C  0.02142731  0.19509516  0.89228891    -0.16000
C423        C  0.51061000  0.19916877  0.86962896    -0.01600
C424        C  0.50568854  0.17436675  0.84882601    -0.09100
C425        C  0.03368022  0.10157438  0.87100923     0.65200
H426        H  0.03441933  0.14897832  0.90997503     0.10600
C427        C  0.51050039  0.24100985  0.86659648     0.63600
H428        H  0.50114587  0.18457617  0.83039735     0.08000
F429        F  0.12877026  0.15620615  0.79768259    -0.19500
F430        F  0.59300383  0.14584410  0.76343565    -0.15700
F431        F  0.09974870  0.10004583  0.77328153    -0.19200
F432        F  0.42070492  0.10637328  0.82858573    -0.22600
F433        F  0.93272823  0.07990484  0.85254972    -0.24100
F434        F  0.39197092  0.03933467  0.81573152    -0.18000
F435        F  0.50563891  0.25000788  0.84188139    -0.20500
F436        F  0.54855180  0.27387854  0.87515194    -0.21700
F437        F  0.47756698  0.23929278  0.88022805    -0.18900
F438        F  0.04272921  0.09281363  0.89490473    -0.19000
F439        F  0.06760242  0.11006831  0.85586023    -0.22800
F440        F  0.99803494  0.06554951  0.86275788    -0.24400
C441        C  0.08548699  0.44737336  0.81578572    -0.11200
C442        C  0.13235271  0.01638996  0.81243296     0.11400
C443        C  0.14216585  0.03861049  0.78925081    -0.03000
C444        C  0.10914551  0.02792016  0.77180932    -0.05800
C445        C  0.06672007  0.99658579  0.77709411    -0.16500
C446        C  0.05960158  0.43831541  0.79455218     0.02400
C447        C  0.16158843  0.02860763  0.83410059     0.12300
C448        C  0.18690773  0.07368998  0.78321785     0.63000
H449        H  0.11597540  0.04635577  0.75454879     0.12400
C450        C  0.02658326  0.39241402  0.79044597     0.55100
H451        H  0.08108311  0.42154903  0.82847364     0.08200
C452        C  0.15595685  0.04950776  0.85452315    -0.05600
C453        C  0.17540422  0.04980178  0.87738784    -0.06400
C454        C  0.19860885  0.02852988  0.88072711    -0.16000
C455        C  0.19712417  0.51411648  0.87254015    -0.01600
C456        C  0.17693932  0.50625909  0.84917177    -0.09100
C457        C  0.12732996  0.06911979  0.85272338     0.65200
H458        H  0.17030302  0.06435293  0.89342833     0.10600
C459        C  0.24323953  0.52532418  0.87452577     0.63600
H460        H  0.19383428  0.50701472  0.83247209     0.08000
F461        F  0.99423002  0.38041827  0.80754402    -0.19500
F462        F  0.04443411  0.36653952  0.79398941    -0.15700
F463        F  0.49030275  0.39431940  0.78638850    -0.19200
F464        F  0.21392198  0.05697157  0.78382990    -0.22600
F465        F  0.20034238  0.10551734  0.80052744    -0.24100
F466        F  0.18952173  0.09184291  0.75972694    -0.18000
F467        F  0.24636555  0.49452890  0.88883148    -0.20500
F468        F  0.26654227  0.56442650  0.88564884    -0.21700
F469        F  0.26088390  0.52795538  0.85132885    -0.18900
F470        F  0.12961488  0.09106286  0.87401656    -0.19000
F471        F  0.08559430  0.03759097  0.84971030    -0.22800
F472        F  0.13922451  0.09748068  0.83262877    -0.24400
C473        C  0.38326300  0.36119801  0.63532802    -0.11200
C474        C  0.35629614  0.36406073  0.65267648     0.11400
C475        C  0.31230167  0.34476095  0.64796098    -0.03000
C476        C  0.29659564  0.32276014  0.62564774    -0.05800
C477        C  0.32357962  0.32020612  0.60802589    -0.16500
C478        C  0.36773262  0.33936660  0.61295302     0.02400
C479        C  0.37602852  0.39047265  0.67468696     0.12300
C480        C  0.28239720  0.34832219  0.66610829     0.63000
H481        H  0.26303432  0.30808686  0.62149416     0.12400
C482        C  0.39874250  0.33867120  0.59439704     0.55100
H483        H  0.41692761  0.37704253  0.63937185     0.08200
C484        C  0.38924696  0.37532098  0.69551589    -0.05600
C485        C  0.41162328  0.40379363  0.71452303    -0.06400
C486        C  0.42130477  0.44660205  0.71339105    -0.16000
C487        C  0.40694225  0.46140049  0.69261120    -0.01600
C488        C  0.38480289  0.43284337  0.67348754    -0.09100
C489        C  0.38118137  0.32979408  0.69724502     0.65200
H490        H  0.42378464  0.39317486  0.72980309     0.10600
C491        C  0.41402504  0.50650317  0.69019256     0.63600
H492        H  0.37505378  0.44369201  0.65694458     0.08000
F493        F  0.39105397  0.29739813  0.59204559    -0.19500
F494        F  0.44046391  0.36342528  0.60195123    -0.15700
F495        F  0.39440990  0.35441982  0.57137599    -0.19200
F496        F  0.29303194  0.39055100  0.66811821    -0.22600
F497        F  0.28519267  0.33249023  0.68940285    -0.24100
F498        F  0.24058121  0.32568884  0.65834398    -0.18000
F499        F  0.45528890  0.53479059  0.68322848    -0.20500
F500        F  0.42631034  0.02715006  0.71231580    -0.21700
F501        F  0.38763218  0.50945142  0.67232343    -0.18900
F502        F  0.39433335  0.32102551  0.71992301    -0.19000
F503        F  0.40301578  0.32323649  0.67851643    -0.22800
F504        F  0.33834461  0.30134185  0.69474863    -0.24400
C505        C  0.04896528  0.15533779  0.69450512    -0.11200
C506        C  0.01190997  0.15816666  0.69552151     0.11400
C507        C  0.48318663  0.13128409  0.71607239    -0.03000
C508        C  0.48765775  0.10286239  0.73258914    -0.05800
C509        C  0.02355331  0.10251685  0.72846794    -0.16500
C510        C  0.05584626  0.12845663  0.71093065     0.02400
C511        C  0.99859361  0.17079197  0.67188625     0.12300
C512        C  0.44664752  0.13942619  0.72028591     0.63000
H513        H  0.46329563  0.08554828  0.74652933     0.12400
C514        C  0.09848978  0.13074064  0.70885912     0.55100
H515        H  0.07137315  0.17176137  0.67945044     0.08200
C516        C  0.02510077  0.20941083  0.65873498    -0.05600
C517        C  0.01903530  0.21189263  0.63290911    -0.06400
C518        C  0.98623149  0.17779515  0.61997911    -0.16000
C519        C  0.45604989  0.13694927  0.63441328    -0.01600
C520        C  0.46408434  0.13242887  0.65975102    -0.09100
C521        C  0.06057120  0.24829126  0.67101145     0.65200
H522        H  0.04072882  0.24080995  0.62266820     0.10600
C523        C  0.41576439  0.10212622  0.62265902     0.63600
H524        H  0.44294024  0.10343929  0.67003432     0.08000
F525        F  0.13022697  0.17154442  0.71424230    -0.19500
F526        F  0.10472421  0.12290989  0.68466565    -0.15700
F527        F  0.10252906  0.10251180  0.72493504    -0.19200
F528        F  0.40866569  0.10229939  0.71659165    -0.22600
F529        F  0.44829300  0.17124456  0.70455984    -0.24100
F530        F  0.44801754  0.15201457  0.74460441    -0.18000
F531        F  0.39205311  0.06900940  0.63941451    -0.20500
F532        F  0.42580867  0.08522507  0.60271636    -0.21700
F533        F  0.39051203  0.11884002  0.61463578    -0.18900
F534        F  0.05708139  0.28374539  0.66444654    -0.19000
F535        F  0.09930320  0.25467697  0.66277718    -0.22800
F536        F  0.05924672  0.24447841  0.69679281    -0.24400
C537        C  0.15107124  0.50247388  0.65060845    -0.11200
C538        C  0.13608172  0.97741643  0.66193555     0.11400
C539        C  0.17950202  0.00165044  0.65593727    -0.03000
C540        C  0.19232974  0.99796877  0.63196892    -0.05800
C541        C  0.16301147  0.96994853  0.61463506    -0.16500
C542        C  0.16666280  0.50916042  0.62614371     0.02400
C543        C  0.11699940  0.98892308  0.68215232     0.12300
C544        C  0.21178762  0.03004691  0.67502021     0.63000
H545        H  0.22523159  0.01741789  0.62642667     0.12400
C546        C  0.17479563  0.54970093  0.61207276     0.55100
H547        H  0.14456656  0.52560111  0.65901052     0.08200
C548        C  0.10345776  0.01899978  0.67758072    -0.05600
C549        C  0.07994699  0.02446643  0.69611004    -0.06400
C550        C  0.06438637  0.99747764  0.71742469    -0.16000
C551        C  0.04478104  0.43179555  0.70305967    -0.01600
C552        C  0.07262341  0.43142433  0.68542579    -0.09100
C553        C  0.11164263  0.04341133  0.65264058     0.65200
H554        H  0.07187182  0.04901614  0.69301187     0.10600
C555        C  0.99834635  0.39974257  0.70022393     0.63600
H556        H  0.05981179  0.41184484  0.66912898     0.08000
F557        F  0.16275709  0.57396785  0.62574830    -0.19500
F558        F  0.15190293  0.53959515  0.59004192    -0.15700
F559        F  0.21765624  0.57462766  0.60700512    -0.19200
F560        F  0.21244457  0.00490136  0.69476627    -0.22600
F561        F  0.20139548  0.05922337  0.68400826    -0.24100
F562        F  0.25220640  0.05243629  0.66495430    -0.18000
F563        F  0.98007076  0.41586441  0.68364130    -0.20500
F564        F  0.97812758  0.39014496  0.72298582    -0.21700
F565        F  0.99313898  0.36192668  0.69107312    -0.18900
F566        F  0.09244319  0.06825874  0.65138070    -0.19000
F567        F  0.09534321  0.01532119  0.63321312    -0.22800
F568        F  0.15466358  0.06977250  0.64896919    -0.24400
C569        C  0.99823702  0.48208740  0.77260716     0.46100
H570        H  0.99445392  0.47643451  0.79314309    -0.02900
C571        C  0.00786112  0.02257442  0.72459615     0.46200
H572        H  0.00966979  0.02939276  0.70424864    -0.02900
C573        C  0.45200367  0.96921650  0.75695461    -0.16600
C574        C  0.01497576  0.52884824  0.76424032    -0.16300
C575        C  0.02971907  0.46976463  0.76231865    -0.16700
C576        C  0.45799347  0.97817395  0.73187828    -0.16700
C577        C  0.01943004  0.53404142  0.73852760    -0.16300
C578        C  0.03308517  0.47329128  0.73683721    -0.16600
Zn579      Zn  0.38845894  0.73749665  0.98413690     1.49700
Zn580      Zn  0.34986778  0.63714025  0.98713355     1.49400
Zn581      Zn  0.34390586  0.68480638  0.03427857     1.49100
Zn582      Zn  0.28983593  0.67755736  0.98547317     1.49500
O583        O  0.34298307  0.68419103  0.99779975    -1.83500
O584        O  0.42573158  0.72695826  0.96203875    -0.74100
O585        O  0.34108335  0.59688839  0.01606716    -0.73900
O586        O  0.40163535  0.73021515  0.04568794    -0.73400
O587        O  0.40737060  0.65903424  0.97028113    -0.74100
O588        O  0.42991953  0.76962911  0.01110043    -0.73700
O589        O  0.33187042  0.62755083  0.04904389    -0.74300
O590        O  0.25939650  0.68751718  0.01308739    -0.73700
O591        O  0.30158057  0.59860095  0.96524900    -0.74400
O592        O  0.29922148  0.69749888  0.04695376    -0.73800
O593        O  0.25378044  0.61947191  0.97065696    -0.74300
O594        O  0.29853964  0.72391250  0.96082102    -0.74200
O595        O  0.36631596  0.77316317  0.96597433    -0.74000
C596        C  0.43266831  0.69583999  0.96082791     0.77800
C597        C  0.33200821  0.59603518  0.03901386     0.78300
C598        C  0.43209806  0.76158233  0.03415167     0.77200
C599        C  0.26759552  0.69689049  0.03595584     0.77600
C600        C  0.26412535  0.59276712  0.96299013     0.78800
C601        C  0.32936680  0.76150370  0.95723394     0.77800
C602        C  0.31020392  0.82391621  0.90803095     0.80900
N603        N  0.28965814  0.83957421  0.92133950    -0.77400
C604        C  0.28436063  0.83212915  0.94625619     0.83300
N605        N  0.29928679  0.80833345  0.95788144    -0.77400
C606        C  0.31992128  0.79243616  0.94473105     0.83400
N607        N  0.32525493  0.80006204  0.91966065    -0.79100
Zn608      Zn  0.23278821  0.86153638  0.01004784     1.49700
Zn609      Zn  0.17950891  0.85466095  0.96034780     1.49400
Zn610      Zn  0.13328635  0.79991009  0.00974277     1.49100
Zn611      Zn  0.17128641  0.90041987  0.00834391     1.49500
O612        O  0.17914922  0.85409700  0.99705975    -1.83500
O613        O  0.26644468  0.85484281  0.98277259    -0.74100
O614        O  0.12318198  0.80718664  0.94711603    -0.73900
O615        O  0.15514264  0.76511001  0.02920054    -0.73400
O616        O  0.22604400  0.84370991  0.94901422    -0.74100
O617        O  0.22355452  0.81338482  0.03281835    -0.73700
O618        O  0.09508397  0.76684713  0.98141598    -0.74300
O619        O  0.11311777  0.87804503  0.02454698    -0.73700
O620        O  0.19135769  0.91275717  0.94603182    -0.74400
O621        O  0.09363316  0.80940580  0.03073515    -0.73800
O622        O  0.18205145  0.94208412  0.97967946    -0.74300
O623        O  0.21721552  0.93682560  0.03234018    -0.74200
O624        O  0.26591319  0.91678522  0.02861228    -0.74000
C625        C  0.25806033  0.84501284  0.95995817     0.77800
C626        C  0.09346354  0.77438820  0.95818066     0.78300
C627        C  0.19243264  0.77636211  0.03715896     0.77200
C628        C  0.08720629  0.84072185  0.03306857     0.77600
C629        C  0.19150758  0.94404174  0.95666360     0.78800
C630        C  0.25395126  0.94194169  0.03682735     0.77800
C631        C  0.20621274  0.71004192  0.08612401     0.80900
N632        N  0.23090517  0.69797007  0.07374734    -0.77400
C633        C  0.24076327  0.70927471  0.04941457     0.83300
N634        N  0.22650101  0.73331978  0.03751175    -0.77400
C635        C  0.20194779  0.74562111  0.04965378     0.83400
N636        N  0.19160406  0.73380243  0.07394805    -0.79100
C637        C  0.19005761  0.51289848  0.91922122     0.80900
N638        N  0.19767555  0.98707662  0.91839295    -0.77400
C639        C  0.20623330  0.98504185  0.94303852     0.83300
N640        N  0.21928727  0.51583208  0.96625869    -0.77400
C641        C  0.23178122  0.55256421  0.95278425     0.83400
N642        N  0.21700585  0.55114684  0.92927279    -0.79100
C643        C  0.50651338  0.82118010  0.08441261     0.80900
N644        N  0.47009472  0.79773328  0.07161293    -0.77400
C645        C  0.47147470  0.78831548  0.04753213     0.83300
N646        N  0.50955553  0.80206805  0.03626873    -0.77400
C647        C  0.04687450  0.83162081  0.04417549     0.82000
N648        N  0.04467845  0.84113640  0.06827226    -0.79100
C649        C  0.01870004  0.70186816  0.91066001     0.80900
N650        N  0.47303128  0.69074561  0.92629536    -0.77400
C651        C  0.47254762  0.70443907  0.94947017     0.83300
N652        N  0.01652432  0.73594014  0.95476771    -0.77400
C653        C  0.05448392  0.74578872  0.94463953     0.83400
N654        N  0.05559828  0.72889601  0.92247545    -0.79100
C655        C  0.32294875  0.01519098  0.08553118     0.80900
N656        N  0.33188700  0.55780378  0.07772018    -0.77400
C657        C  0.31916476  0.55660190  0.05368930     0.83300
N658        N  0.29821783  0.01858797  0.03800890    -0.77400
C659        C  0.28408941  0.98030474  0.04982536     0.83400
N660        N  0.29657279  0.97847720  0.07360615    -0.79100
Zn661      Zn  0.32952270  0.60167750  0.51154329     1.49700
Zn662      Zn  0.36616370  0.70092535  0.51230200     1.49400
Zn663      Zn  0.32120475  0.65059365  0.46294401     1.49100
Zn664      Zn  0.26725916  0.63938995  0.51241831     1.49500
O665        O  0.32082778  0.64800926  0.49965005    -1.83500
O666        O  0.38670643  0.62369140  0.52916455    -0.74100
O667        O  0.40769058  0.73340189  0.48479100    -0.73900
O668        O  0.30872549  0.59306429  0.44965900    -0.73400
O669        O  0.40175287  0.69017661  0.53660618    -0.74100
O670        O  0.32087811  0.56290069  0.48327692    -0.73700
O671        O  0.37904237  0.69734420  0.45012396    -0.74300
O672        O  0.23455906  0.64793417  0.48468339    -0.73700
O673        O  0.34428409  0.73583173  0.52915692    -0.74400
O674        O  0.27506010  0.66318892  0.45077639    -0.73800
O675        O  0.27638063  0.68681608  0.53484099    -0.74300
O676        O  0.23328231  0.58139029  0.53016487    -0.74200
O677        O  0.28238458  0.56171686  0.53447045    -0.74000
C678        C  0.40964016  0.65974212  0.53921587     0.77800
C679        C  0.40979105  0.72759388  0.46163572     0.78300
C680        C  0.31000955  0.56180116  0.46049652     0.77200
C681        C  0.24268670  0.66002135  0.46190834     0.77600
C682        C  0.30747487  0.72423552  0.53777576     0.78800
C683        C  0.24512259  0.55534230  0.53822222     0.77800
C684        C  0.30902953  0.80184016  0.58229452     0.80900
N685        N  0.27979636  0.81043714  0.57151946    -0.77400
C686        C  0.26090703  0.79219036  0.54978954     0.83300
N687        N  0.27061747  0.76466389  0.53894494    -0.77400
C688        C  0.29910237  0.75527823  0.54966042     0.83400
N689        N  0.31848152  0.77400504  0.57127575    -0.79100
Zn690      Zn  0.10536030  0.75871370  0.48869395     1.49700
Zn691      Zn  0.14269918  0.85923581  0.48768219     1.49400
Zn692      Zn  0.15280724  0.81108719  0.53654790     1.49100
Zn693      Zn  0.20458367  0.82198543  0.48704368     1.49500
O694        O  0.15108453  0.81274499  0.50000360    -1.83500
O695        O  0.06563044  0.76818595  0.46667077    -0.74100
O696        O  0.15121627  0.89796241  0.51582433    -0.73900
O697        O  0.09631159  0.76494791  0.55064489    -0.73400
O698        O  0.08525928  0.83695601  0.47025008    -0.74100
O699        O  0.06672601  0.72535159  0.51730572    -0.73700
O700        O  0.16537087  0.86833033  0.54897422    -0.74300
O701        O  0.23825411  0.81406893  0.51417727    -0.73700
O702        O  0.19026727  0.90007005  0.46528149    -0.74400
O703        O  0.19963609  0.79986200  0.54872933    -0.73800
O704        O  0.23865458  0.87955302  0.46953472    -0.74300
O705        O  0.19563992  0.77557520  0.46455729    -0.74200
O706        O  0.12841670  0.72504305  0.47105671    -0.74000
C707        C  0.05932867  0.79953211  0.46275652     0.77800
C708        C  0.16316960  0.89919551  0.53836318     0.78300
C709        C  0.06568510  0.73290882  0.54027550     0.77200
C710        C  0.23161735  0.80317886  0.53714035     0.77600
C711        C  0.22748019  0.90616873  0.46174885     0.78800
C712        C  0.16529753  0.73772949  0.46207616     0.77800
C713        C  0.18269634  0.47770037  0.58842954     0.80900
N714        N  0.16573197  0.93624013  0.57620674    -0.77400
C715        C  0.17664809  0.93825268  0.55200799     0.83300
N716        N  0.19785954  0.47834420  0.53885170    -0.77400
C717        C  0.21499152  0.51562125  0.55115170     0.83400
N718        N  0.20774836  0.51510649  0.57592924    -0.79100
C719        C  0.99154409  0.67555474  0.59273175     0.80900
N720        N  0.02805239  0.69900972  0.57947082    -0.77400
C721        C  0.02674808  0.70534569  0.55447390     0.83300
N722        N  0.98865645  0.68879952  0.54272214    -0.77400
C723        C  0.44762304  0.66843923  0.55332249     0.83400
N724        N  0.44592162  0.66460598  0.57854347    -0.79100
C725        C  0.48971005  0.79870040  0.41462719     0.80900
N726        N  0.01780687  0.80465151  0.42748309    -0.77400
C727        C  0.01911991  0.79043198  0.45100340     0.83300
N728        N  0.48688044  0.76438157  0.46062058    -0.77400
C729        C  0.45017117  0.75520883  0.44876108     0.83400
N730        N  0.45155950  0.77195342  0.42554549    -0.79100
C731        C  0.18025059  0.67769352  0.41268035     0.80900
N732        N  0.20566474  0.66493840  0.42438794    -0.77400
C733        C  0.21498040  0.67298332  0.44890186     0.83300
N734        N  0.19982785  0.69488658  0.46138923    -0.77400
C735        C  0.17496729  0.70820085  0.44960579     0.83400
N736        N  0.16536723  0.69976427  0.42519943    -0.79100
C737        C  0.30226618  0.98400021  0.41535053     0.80900
N738        N  0.30724951  0.52091185  0.42366244    -0.77400
C739        C  0.29518821  0.52162600  0.44745726     0.83300
N740        N  0.27009909  0.98363667  0.46081306    -0.77400
C741        C  0.25860787  0.94621741  0.44961601     0.83400
N742        N  0.27520337  0.94641725  0.42709121    -0.79100
C743        C  0.99469179  0.50901226  0.22481427     0.46100
H744        H  0.98988801  0.50848018  0.20441551    -0.02900
C745        C  0.00335547  0.50761049  0.27260396     0.46200
H746        H  0.00678007  0.50625638  0.29319091    -0.02900
C747        C  0.47093879  0.51293967  0.24178864    -0.16600
C748        C  0.00546237  0.96135907  0.23650782    -0.16300
C749        C  0.03463626  0.54925137  0.23406387    -0.16700
C750        C  0.47511694  0.00833226  0.26540227    -0.16700
C751        C  0.00852431  0.95988083  0.26192570    -0.16300
C752        C  0.03916534  0.54807612  0.25962599    -0.16600
C753        C  0.32815772  0.50278226  0.34421776    -0.11200
C754        C  0.35656898  0.97791626  0.34570526     0.11400
C755        C  0.35893509  0.95573336  0.36738084    -0.03000
C756        C  0.33989779  0.95796568  0.38953080    -0.05800
C757        C  0.32056549  0.98315833  0.39102132    -0.16500
C758        C  0.30832890  0.50428596  0.36632908     0.02400
C759        C  0.38417703  0.98532375  0.32372799     0.12300
C760        C  0.38234646  0.93062762  0.36734882     0.63000
H761        H  0.34122298  0.94110846  0.40625587     0.12400
C762        C  0.28583013  0.53020730  0.36692638     0.55100
H763        H  0.32956629  0.52210500  0.32803690     0.08200
C764        C  0.37102389  0.96081623  0.30188619    -0.05600
C765        C  0.40143703  0.96937368  0.28308378    -0.06400
C766        C  0.44331068  0.00367553  0.28468324    -0.16000
C767        C  0.45234196  0.53217061  0.30807481    -0.01600
C768        C  0.42051022  0.52090548  0.32595320    -0.09100
C769        C  0.32504510  0.92708497  0.29809035     0.65200
H770        H  0.39269521  0.94919539  0.26701485     0.10600
C771        C  0.49438011  0.57176682  0.31321858     0.63600
H772        H  0.42782699  0.53837650  0.34315908     0.08000
F773        F  0.28260134  0.54493825  0.34332892    -0.19500
F774        F  0.30798292  0.56509766  0.38188900    -0.15700
F775        F  0.24521420  0.50520566  0.37631137    -0.19200
F776        F  0.42440590  0.95704399  0.36091100    -0.22600
F777        F  0.36364493  0.89840270  0.35039734    -0.24100
F778        F  0.38130165  0.91213631  0.39050931    -0.18000
F779        F  0.48828850  0.60108766  0.32607582    -0.20500
F780        F  0.00195990  0.58380296  0.28745533    -0.21700
F781        F  0.51971391  0.56097550  0.32758313    -0.18900
F782        F  0.31912299  0.90683778  0.27560368    -0.19000
F783        F  0.30002564  0.94607319  0.29807186    -0.22800
F784        F  0.31162536  0.89650039  0.31702602    -0.24400
C785        C  0.11653779  0.62700722  0.35510496    -0.11200
C786        C  0.14871285  0.64179440  0.33708818     0.11400
C787        C  0.19116792  0.67047843  0.34349660    -0.03000
C788        C  0.20037065  0.68241293  0.36853622    -0.05800
C789        C  0.16817945  0.66668999  0.38666347    -0.16500
C790        C  0.12553752  0.63873563  0.38001726     0.02400
C791        C  0.13579284  0.62324221  0.31227413     0.12300
C792        C  0.22617826  0.68732437  0.32409997     0.63000
H793        H  0.23274526  0.70375918  0.37423790     0.12400
C794        C  0.09001636  0.61988937  0.39925142     0.55100
H795        H  0.08426093  0.60509690  0.34948309     0.08200
C796        C  0.12217430  0.57967162  0.30930966    -0.05600
C797        C  0.09272981  0.55798984  0.29070894    -0.06400
C798        C  0.07634731  0.57792639  0.27484113    -0.16000
C799        C  0.09304249  0.62288067  0.27645994    -0.01600
C800        C  0.12368658  0.64481005  0.29486955    -0.09100
C801        C  0.13411658  0.55352952  0.32686805     0.65200
H802        H  0.07994216  0.52395142  0.29000992     0.10600
C803        C  0.07793973  0.64940148  0.26168562     0.63600
H804        H  0.13435367  0.67827310  0.29766244     0.08000
F805        F  0.05190469  0.58970922  0.38904933    -0.19500
F806        F  0.08412884  0.65180639  0.40873364    -0.15700
F807        F  0.10016926  0.60023836  0.41852418    -0.19200
F808        F  0.21877976  0.71090838  0.30600640    -0.22600
F809        F  0.22715673  0.65369480  0.31298441    -0.24100
F810        F  0.26561598  0.71326307  0.33452920    -0.18000
F811        F  0.11026112  0.67794627  0.24613426    -0.20500
F812        F  0.55410545  0.63362232  0.24660503    -0.21700
F813        F  0.06785847  0.67217486  0.27798327    -0.18900
F814        F  0.14693595  0.53007915  0.31304550    -0.19000
F815        F  0.09901210  0.52568799  0.34092574    -0.22800
F816        F  0.16685712  0.57835102  0.34287268    -0.24400
C817        C  0.98020466  0.86529696  0.36422651    -0.11200
C818        C  0.49372166  0.85412870  0.34208480     0.11400
C819        C  0.48582426  0.81158432  0.34443621    -0.03000
C820        C  0.48473194  0.79441114  0.36856856    -0.05800
C821        C  0.49127122  0.81848458  0.38995540    -0.16500
C822        C  0.97921571  0.84889147  0.38842192     0.02400
C823        C  0.49563053  0.87565907  0.31767477     0.12300
C824        C  0.47871442  0.78457480  0.32172050     0.63000
H825        H  0.47890447  0.76205933  0.37097943     0.12400
C826        C  0.97924621  0.87337213  0.41102605     0.55100
H827        H  0.98189507  0.89597550  0.36164449     0.08200
C828        C  0.46257217  0.88314253  0.30966642    -0.05600
C829        C  0.47020487  0.91207655  0.28963731    -0.06400
C830        C  0.50961098  0.93371481  0.27739308    -0.16000
C831        C  0.03152830  0.91147095  0.28544209    -0.01600
C832        C  0.02322733  0.88498038  0.30679158    -0.09100
C833        C  0.42017659  0.86239436  0.32310784     0.65200
H834        H  0.44598207  0.91991068  0.28425083     0.10600
C835        C  0.07286083  0.92639152  0.27153691     0.63600
H836        H  0.04826858  0.88071431  0.31509988     0.08000
F837        F  0.94342492  0.84838059  0.42529663    -0.19500
F838        F  0.97930182  0.91068136  0.40426721    -0.15700
F839        F  0.01494460  0.88392128  0.42534241    -0.19200
F840        F  0.51464707  0.80296307  0.30692507    -0.22600
F841        F  0.44492330  0.78145066  0.30791024    -0.24100
F842        F  0.46986724  0.74364235  0.32839551    -0.18000
F843        F  0.06412267  0.91189421  0.24746073    -0.20500
F844        F  0.09699702  0.97009047  0.27110415    -0.21700
F845        F  0.60924612  0.92654351  0.28046928    -0.18900
F846        F  0.39111073  0.87062500  0.31081947    -0.19000
F847        F  0.90390706  0.85318967  0.34256229    -0.22800
F848        F  0.40334498  0.81869578  0.32458143    -0.24400
C849        C  0.39267311  0.53495625  0.20567574    -0.11200
C850        C  0.38164255  0.99790886  0.18357786     0.11400
C851        C  0.39036483  0.96424109  0.18796445    -0.03000
C852        C  0.41558089  0.96632216  0.20861654    -0.05800
C853        C  0.43212301  0.50608616  0.22785742    -0.16500
C854        C  0.41737413  0.53613314  0.22643284     0.02400
C855        C  0.36528798  0.00379022  0.15905646     0.12300
C856        C  0.37451920  0.92716452  0.17031321     0.63000
H857        H  0.42551442  0.94270654  0.21095054     0.12400
C858        C  0.42758745  0.57001534  0.24575210     0.55100
H859        H  0.38366282  0.55922609  0.20288422     0.08200
C860        C  0.32285815  0.99451424  0.15522854    -0.05600
C861        C  0.31017737  0.99924121  0.13089345    -0.06400
C862        C  0.33865384  0.01309357  0.11074671    -0.16000
C863        C  0.38018221  0.53642938  0.12016257    -0.01600
C864        C  0.39324315  0.53081760  0.14402372    -0.09100
C865        C  0.29118910  0.97943478  0.17658672     0.65200
H866        H  0.27784760  0.99196871  0.12733073     0.10600
C867        C  0.41252361  0.55672175  0.09919995     0.63600
H868        H  0.42637951  0.54125077  0.14759018     0.08000
F869        F  0.40282945  0.55143190  0.26668185    -0.19500
F870        F  0.41898984  0.60133926  0.23688636    -0.15700
F871        F  0.46972963  0.58993952  0.25239382    -0.19200
F872        F  0.39430647  0.94112222  0.14738283    -0.22600
F873        F  0.33123145  0.90917694  0.16699545    -0.24100
F874        F  0.38235751  0.89558161  0.17958078    -0.18000
F875        F  0.41486314  0.59458915  0.09125026    -0.20500
F876        F  0.40076524  0.52936400  0.07936378    -0.21700
F877        F  0.45267426  0.56570540  0.10677928    -0.18900
F878        F  0.25131010  0.97062886  0.16851274    -0.19000
F879        F  0.30459782  0.01063116  0.19429701    -0.22800
F880        F  0.28752045  0.94270429  0.18760147    -0.24400
C881        C  0.00890476  0.83403701  0.14971792    -0.11200
C882        C  0.49837484  0.86633161  0.15563296     0.11400
C883        C  0.49204027  0.88465171  0.13339452    -0.03000
C884        C  0.49426328  0.86814163  0.11051006    -0.05800
C885        C  0.50390167  0.83527233  0.10930923    -0.16500
C886        C  0.01361694  0.82143900  0.12589275     0.02400
C887        C  0.50341102  0.88708001  0.17971430     0.12300
C888        C  0.48476882  0.92265383  0.13372317     0.63000
H889        H  0.48993046  0.88178045  0.09320400     0.12400
C890        C  0.02965298  0.79014289  0.12316427     0.55100
H891        H  0.01852691  0.82300780  0.16622740     0.08200
C892        C  0.47018539  0.87419169  0.19723022    -0.05600
C893        C  0.47593685  0.90141305  0.21707846    -0.06400
C894        C  0.51347796  0.94067173  0.21928877    -0.16000
C895        C  0.04091826  0.94276114  0.20269431    -0.01600
C896        C  0.03549315  0.91866399  0.18169415    -0.09100
C897        C  0.42878236  0.83278971  0.19439460     0.65200
H898        H  0.45034094  0.89351448  0.23009086     0.10600
C899        C  0.08441496  0.98102411  0.20609031     0.63600
H900        H  0.06103775  0.92963973  0.16816635     0.08000
F901        F  0.03590856  0.77557269  0.14611990    -0.19500
F902        F  0.06785637  0.80963314  0.11046043    -0.15700
F903        F  0.00038189  0.75530074  0.10998508    -0.19200
F904        F  0.52141441  0.95863164  0.14099846    -0.22600
F905        F  0.45263180  0.91457565  0.15022448    -0.24100
F906        F  0.47335697  0.93127014  0.11044070    -0.18000
F907        F  0.11505570  0.96920191  0.20341303    -0.20500
F908        F  0.08425030  0.50805753  0.21417018    -0.21700
F909        F  0.09060518  0.01151451  0.18806593    -0.18900
F910        F  0.40014414  0.82688491  0.21302609    -0.19000
F911        F  0.43650668  0.79894330  0.19565055    -0.22800
F912        F  0.41042186  0.83271704  0.17161032    -0.24400
C913        C  0.08527383  0.62005992  0.17602616    -0.11200
C914        C  0.12775914  0.63178073  0.17941173     0.11400
C915        C  0.14132277  0.62266223  0.20237204    -0.03000
C916        C  0.11025879  0.59620122  0.21997752    -0.05800
C917        C  0.06672974  0.58232485  0.21627375    -0.16500
C918        C  0.05486634  0.59761245  0.19448291     0.02400
C919        C  0.15614248  0.65318735  0.15791690     0.12300
C920        C  0.18813516  0.64162019  0.20838740     0.63000
H921        H  0.12002298  0.58494083  0.23622897     0.12400
C922        C  0.01120993  0.59174494  0.18945408     0.55100
H923        H  0.07582831  0.62897689  0.15858842     0.08200
C924        C  0.15983414  0.62908923  0.13870499    -0.05600
C925        C  0.17888749  0.64992022  0.11616154    -0.06400
C926        C  0.19183833  0.69312487  0.11171247    -0.16000
C927        C  0.18920935  0.71762206  0.13116080    -0.01600
C928        C  0.17166230  0.69704944  0.15419147    -0.09100
C929        C  0.14059600  0.58098250  0.14113255     0.65200
H930        H  0.18106136  0.63172710  0.10107377     0.10600
C931        C  0.20437699  0.76491988  0.12773541     0.63600
H932        H  0.16737514  0.71443787  0.16898848     0.08000
F933        F  0.01444561  0.62854768  0.17866229    -0.19500
F934        F  0.98866238  0.58400491  0.21107313    -0.15700
F935        F  0.99421741  0.04565679  0.17618504    -0.19200
F936        F  0.20754112  0.68562084  0.20684351    -0.22600
F937        F  0.20752466  0.62818153  0.19172333    -0.24100
F938        F  0.19440685  0.63014855  0.23227365    -0.18000
F939        F  0.17752611  0.77089146  0.11169189    -0.20500
F940        F  0.24509137  0.78570392  0.11806479    -0.21700
F941        F  0.20506536  0.78349422  0.15013693    -0.18900
F942        F  0.14932529  0.56417929  0.12057785    -0.19000
F943        F  0.09707026  0.56215603  0.14323446    -0.22800
F944        F  0.15649382  0.57036249  0.16195734    -0.24400
C945        C  0.34910956  0.91093417  0.79336706    -0.11200
C946        C  0.35695821  0.88111192  0.80619436     0.11400
C947        C  0.38696411  0.87123517  0.79637370    -0.03000
C948        C  0.41451904  0.89828306  0.77763293    -0.05800
C949        C  0.41254177  0.93387604  0.76850543    -0.16500
C950        C  0.37613952  0.93716827  0.77396656     0.02400
C951        C  0.34030963  0.86716372  0.83197159     0.12300
C952        C  0.39149060  0.83398006  0.80653296     0.63000
H953        H  0.43962891  0.89347848  0.77101296     0.12400
C954        C  0.36454524  0.96612160  0.75890453     0.55100
H955        H  0.32322717  0.91516060  0.79966827     0.08200
C956        C  0.35821426  0.89564308  0.85204188    -0.05600
C957        C  0.34740091  0.87943001  0.87651009    -0.06400
C958        C  0.31888032  0.83636119  0.88155977    -0.16000
C959        C  0.29862134  0.80826369  0.86164527    -0.01600
C960        C  0.31008609  0.82428223  0.83701079    -0.09100
C961        C  0.38810896  0.94316726  0.84785026     0.65200
H962        H  0.36121431  0.90045153  0.89213282     0.10600
C963        C  0.26530155  0.76160313  0.86526386     0.63600
H964        H  0.29541285  0.80309622  0.82156126     0.08000
F965        F  0.32857169  0.96502399  0.76819893    -0.19500
F966        F  0.35622796  0.95255477  0.73459051    -0.15700
F967        F  0.39699291  0.00779087  0.75892259    -0.19200
F968        F  0.35366326  0.79640090  0.80368385    -0.22600
F969        F  0.40228152  0.83939198  0.83155038    -0.24100
F970        F  0.42229351  0.82991361  0.79395822    -0.18000
F971        F  0.23136033  0.75185065  0.84947524    -0.20500
F972        F  0.24964486  0.75140702  0.88936356    -0.21700
F973        F  0.28281067  0.73652874  0.85943224    -0.18900
F974        F  0.40411867  0.96399528  0.87006062    -0.19000
F975        F  0.36630751  0.96110026  0.83624614    -0.22800
F976        F  0.42206132  0.95013333  0.83316517    -0.24400
C977        C  0.04941792  0.62939719  0.80424961    -0.11200
C978        C  0.01749091  0.61241090  0.82238309     0.11400
C979        C  0.46668148  0.58125337  0.81901223    -0.03000
C980        C  0.46824063  0.55647412  0.79982903    -0.05800
C981        C  0.01831505  0.56090229  0.78322568    -0.16500
C982        C  0.05136873  0.60450539  0.78498378     0.02400
C983        C  0.02118084  0.63853269  0.84427530     0.12300
C984        C  0.42616662  0.56608213  0.83393611     0.63000
H985        H  0.44116640  0.52553187  0.79673032     0.12400
C986        C  0.08993636  0.62711586  0.76811766     0.55100
H987        H  0.07425397  0.66235009  0.80588043     0.08200
C988        C  0.04553457  0.63997897  0.86549996    -0.05600
C989        C  0.04460351  0.66194016  0.88656023    -0.06400
C990        C  0.01976795  0.68178719  0.88711265    -0.16000
C991        C  0.49610270  0.69529967  0.86858416    -0.01600
C992        C  0.49452937  0.67386431  0.84678013    -0.09100
C993        C  0.07190315  0.61788561  0.86596848     0.65200
H994        H  0.06244769  0.66280159  0.90311235     0.10600
C995        C  0.48270511  0.72899569  0.86798482     0.63600
H996        H  0.48254674  0.68024252  0.82952774     0.08000
F997        F  0.12580369  0.65199140  0.78212102    -0.19500
F998        F  0.59208452  0.65302011  0.76053896    -0.15700
F999        F  0.09782311  0.59943718  0.75532774    -0.19200
F1000       F  0.41192038  0.59500189  0.83065033    -0.22600
F1001       F  0.95999606  0.55313838  0.86241409    -0.24100
F1002       F  0.39427208  0.52661823  0.82640628    -0.18000
F1003       F  0.47407193  0.73751700  0.84392648    -0.20500
F1004       F  0.51490665  0.76656460  0.87746384    -0.21700
F1005       F  0.44657222  0.71525851  0.88225935    -0.18900
F1006       F  0.09187693  0.62183608  0.88873245    -0.19000
F1007       F  0.10279593  0.63570238  0.84767218    -0.22800
F1008       F  0.04624969  0.57491557  0.86167568    -0.24400
C1009       C  0.09215488  0.98146299  0.81635423    -0.11200
C1010       C  0.11507569  0.48940825  0.82188818     0.11400
C1011       C  0.12221458  0.52334392  0.80523271    -0.03000
C1012       C  0.09616621  0.51407028  0.78419545    -0.05800
C1013       C  0.06377998  0.47264481  0.77918329    -0.16500
C1014       C  0.05884585  0.97063342  0.79935925     0.02400
C1015       C  0.13473758  0.49717515  0.84691619     0.12300
C1016       C  0.15410328  0.56950262  0.81069921     0.63000
H1017       H  0.09883628  0.53982270  0.77226000     0.12400
C1018       C  0.01722978  0.93055109  0.80574750     0.55100
H1019       H  0.08671284  0.96389937  0.83391484     0.08200
C1020       C  0.11155068  0.49534886  0.86844126    -0.05600
C1021       C  0.13137702  0.50195629  0.89178933    -0.06400
C1022       C  0.17334955  0.51078156  0.89400135    -0.16000
C1023       C  0.20635135  0.00972452  0.86002846    -0.01600
C1024       C  0.18762324  0.01018500  0.83686575    -0.09100
C1025       C  0.06531348  0.48388647  0.86700040     0.65200
H1026       H  0.11387374  0.49912781  0.90864538     0.10600
C1027       C  0.23407253  0.98928349  0.86242562     0.63600
H1028       H  0.19087230  0.99373046  0.82116938     0.08000
F1029       F  0.98625445  0.94040467  0.81074587    -0.19500
F1030       F  0.02038925  0.90903775  0.82675391    -0.15700
F1031       F  0.49974698  0.89572882  0.78836762    -0.19200
F1032       F  0.19362634  0.57414972  0.81551512    -0.22600
F1033       F  0.14074928  0.58223872  0.83116771    -0.24100
F1034       F  0.15856828  0.59646109  0.79067404    -0.18000
F1035       F  0.21476995  0.95342346  0.87787662    -0.20500
F1036       F  0.27298879  0.01804145  0.87236964    -0.21700
F1037       F  0.24115091  0.97706150  0.83950948    -0.18900
F1038       F  0.05117686  0.49097942  0.88929529    -0.19000
F1039       F  0.04097210  0.44117800  0.86172722    -0.22800
F1040       F  0.05945962  0.50793734  0.84850166    -0.24400
C1041       C  0.38999459  0.86168995  0.63334408    -0.11200
C1042       C  0.36494818  0.86939403  0.64980761     0.11400
C1043       C  0.32149774  0.85368819  0.64449999    -0.03000
C1044       C  0.30447336  0.83032186  0.62274458    -0.05800
C1045       C  0.32943494  0.82274149  0.60601769    -0.16500
C1046       C  0.37302398  0.83820154  0.61152563     0.02400
C1047       C  0.38582309  0.89565983  0.67190603     0.12300
C1048       C  0.29340961  0.86244334  0.66132861     0.63000
H1049       H  0.27132701  0.81840713  0.61834685     0.12400
C1050       C  0.40203501  0.83131853  0.59436141     0.55100
H1051       H  0.42330559  0.87469399  0.63773882     0.08200
C1052       C  0.39647090  0.87909413  0.69328708    -0.05600
C1053       C  0.41874879  0.90684531  0.71273558    -0.06400
C1054       C  0.42894166  0.94984624  0.71208139    -0.16000
C1055       C  0.41624252  0.96558705  0.69103722    -0.01600
C1056       C  0.39647577  0.93861013  0.67090193    -0.09100
C1057       C  0.38471723  0.83246137  0.69548652     0.65200
H1058       H  0.42970835  0.89527680  0.72822565     0.10600
C1059       C  0.42203702  0.01003388  0.68915047     0.63600
H1060       H  0.38859848  0.95101514  0.65425562     0.08000
F1061       F  0.38944328  0.78837708  0.59393737    -0.19500
F1062       F  0.44384075  0.85276109  0.60225849    -0.15700
F1063       F  0.40061889  0.84604964  0.57045271    -0.19200
F1064       F  0.30641486  0.90548478  0.66041441    -0.22600
F1065       F  0.29584130  0.85015584  0.68567707    -0.24100
F1066       F  0.25126893  0.84041947  0.65406860    -0.18000
F1067       F  0.45745853  0.03607084  0.67486498    -0.20500
F1068       F  0.40524652  0.51853342  0.71249599    -0.21700
F1069       F  0.38682611  0.00888768  0.67805152    -0.18900
F1070       F  0.39598566  0.82261192  0.71847896    -0.19000
F1071       F  0.40522622  0.82312342  0.67723524    -0.22800
F1072       F  0.34137639  0.80679823  0.69271641    -0.24400
C1073       C  0.05064680  0.61760811  0.68666482    -0.11200
C1074       C  0.02185886  0.63183745  0.69103640     0.11400
C1075       C  0.47175812  0.62476563  0.71484347    -0.03000
C1076       C  0.47770605  0.59696828  0.73116093    -0.05800
C1077       C  0.02709651  0.57316385  0.72428248    -0.16500
C1078       C  0.05457045  0.58918171  0.70323587     0.02400
C1079       C  0.01023435  0.64977620  0.66931248     0.12300
C1080       C  0.43466393  0.63187856  0.71959918     0.63000
H1081       H  0.45436344  0.57980778  0.74555001     0.12400
C1082       C  0.08731573  0.57649998  0.69684650     0.55100
H1083       H  0.06858832  0.62700932  0.66936332     0.08200
C1084       C  0.03865217  0.68925213  0.65774094    -0.05600
C1085       C  0.03029849  0.69716200  0.63307280    -0.06400
C1086       C  0.99405019  0.66735838  0.61996720    -0.16000
C1087       C  0.44827555  0.63592031  0.63242945    -0.01600
C1088       C  0.45386558  0.62977695  0.65794899    -0.09100
C1089       C  0.07827618  0.72336468  0.67037575     0.65200
H1090       H  0.05295879  0.72676834  0.62380671     0.10600
C1091       C  0.40966894  0.60148346  0.61906456     0.63600
H1092       H  0.43215696  0.59997514  0.66733742     0.08000
F1093       F  0.12473076  0.61220207  0.68938416    -0.19500
F1094       F  0.07260062  0.54804689  0.67752260    -0.15700
F1095       F  0.09681875  0.55845509  0.71700715    -0.19200
F1096       F  0.39701144  0.59459405  0.71555760    -0.22600
F1097       F  0.43565939  0.66404578  0.70448397    -0.24100
F1098       F  0.43579365  0.64332909  0.74415688    -0.18000
F1099       F  0.38480790  0.56698632  0.63469874    -0.20500
F1100       F  0.42235187  0.58650195  0.59931454    -0.21700
F1101       F  0.38452189  0.61795254  0.61039184    -0.18900
F1102       F  0.07782862  0.76147133  0.66944883    -0.19000
F1103       F  0.11384059  0.72886589  0.65790103    -0.22800
F1104       F  0.08132824  0.71358734  0.69519162    -0.24400
C1105       C  0.10774637  0.94618959  0.64583904    -0.11200
C1106       C  0.14107945  0.46518028  0.66433399     0.11400
C1107       C  0.14896782  0.43405994  0.65428613    -0.03000
C1108       C  0.16457387  0.44045482  0.62974396    -0.05800
C1109       C  0.17239872  0.47684037  0.61524509    -0.16500
C1110       C  0.12014203  0.94231296  0.62188403     0.02400
C1111       C  0.11648301  0.45784665  0.68740887     0.12300
C1112       C  0.14151760  0.39488235  0.66960035     0.63000
H1113       H  0.16998913  0.41650337  0.62150471     0.12400
C1114       C  0.08661704  0.91129189  0.60410859     0.55100
H1115       H  0.07478842  0.92755884  0.65146562     0.08200
C1116       C  0.13343051  0.48435070  0.70821033    -0.05600
C1117       C  0.10538479  0.48681392  0.72497028    -0.06400
C1118       C  0.06113572  0.46271252  0.72195408    -0.16000
C1119       C  0.07331090  0.96321166  0.71965412    -0.01600
C1120       C  0.10293929  0.96240603  0.70339538    -0.09100
C1121       C  0.18057260  0.51315538  0.71230416     0.65200
H1122       H  0.11866425  0.51005476  0.73933437     0.10600
C1123       C  0.04747532  0.92307010  0.73516904     0.63600
H1124       H  0.11093272  0.93720562  0.70542155     0.08000
F1125       F  0.04631766  0.89206220  0.61441141    -0.19500
F1126       F  0.09528714  0.87926194  0.59843214    -0.15700
F1127       F  0.08597004  0.93268096  0.58242457    -0.19200
F1128       F  0.09928982  0.37063967  0.67621274    -0.22600
F1129       F  0.16582133  0.40756522  0.69106510    -0.24100
F1130       F  0.15250074  0.36919550  0.65654457    -0.18000
F1131       F  0.03922734  0.88753080  0.72170418    -0.20500
F1132       F  0.00866346  0.91834305  0.74133529    -0.21700
F1133       F  0.06999290  0.92380519  0.75631390    -0.18900
F1134       F  0.19049742  0.50928178  0.73691398    -0.19000
F1135       F  0.19094377  0.55499985  0.70733588    -0.22800
F1136       F  0.20497736  0.50310283  0.69732296    -0.24400
C1137       C  0.49288065  0.99530183  0.77264082     0.46100
H1138       H  0.48790886  0.98931193  0.79290117    -0.02900
C1139       C  0.49665846  0.50927865  0.72503350     0.46200
H1140       H  0.49902196  0.51527600  0.70471195    -0.02900
C1141       C  0.95642309  0.45613351  0.75813533    -0.16600
C1142       C  0.50771604  0.04226760  0.76639088    -0.16300
C1143       C  0.52757803  0.98725488  0.76164318    -0.16700
C1144       C  0.96015684  0.46120143  0.73271879    -0.16700
C1145       C  0.51383623  0.05219374  0.74134580    -0.16300
C1146       C  0.53162807  0.99496621  0.73587234    -0.16600
Zn1147     Zn  0.89249712  0.23539109  0.98875858     1.49700
Zn1148     Zn  0.85625894  0.13504037  0.98689691     1.49400
Zn1149     Zn  0.84328715  0.17624770  0.03463778     1.49100
Zn1150     Zn  0.79495152  0.17438496  0.98377319     1.49500
O1151       O  0.84651225  0.17962297  0.99841934    -1.83500
O1152       O  0.93105062  0.22968183  0.96500897    -0.74100
O1153       O  0.84816881  0.09337840  0.01543828    -0.73900
O1154       O  0.89910288  0.21855516  0.04974071    -0.73400
O1155       O  0.91458825  0.16156558  0.97048887    -0.74100
O1156       O  0.93208583  0.26196744  0.01739188    -0.73700
O1157       O  0.83002482  0.11817015  0.04791147    -0.74300
O1158       O  0.76101067  0.18266492  0.01037023    -0.73700
O1159       O  0.81014888  0.09779736  0.96302443    -0.74400
O1160       O  0.79826570  0.18934323  0.04506945    -0.73800
O1161       O  0.76179429  0.11866919  0.96509636    -0.74300
O1162       O  0.80729664  0.22384617  0.96098220    -0.74200
O1163       O  0.87041774  0.27377607  0.97456204    -0.74000
C1164       C  0.93912355  0.19952625  0.96225509     0.77800
C1165       C  0.83501362  0.08942490  0.03786307     0.78300
C1166       C  0.93136617  0.25066760  0.04011846     0.77200
C1167       C  0.76811365  0.19082489  0.03347699     0.77600
C1168       C  0.77368967  0.09288206  0.95774355     0.78800
C1169       C  0.83590970  0.26270363  0.96272323     0.77800
C1170       C  0.81957384  0.32809089  0.91502160     0.80900
N1171       N  0.79604412  0.34100036  0.92767083    -0.77400
C1172       C  0.78819527  0.33120767  0.95227696     0.83300
N1173       N  0.80341362  0.30772640  0.96412536    -0.77400
C1174       C  0.82706328  0.29473976  0.95140826     0.83400
N1175       N  0.83499973  0.30490111  0.92681313    -0.79100
Zn1176     Zn  0.73393399  0.36052648  0.01476585     1.49700
Zn1177     Zn  0.68190581  0.35219958  0.96435752     1.49400
Zn1178     Zn  0.63661877  0.29904603  0.01385531     1.49100
Zn1179     Zn  0.67074245  0.39815732  0.01095353     1.49500
O1180       O  0.68105571  0.35300385  0.00085470    -1.83500
O1181       O  0.76767130  0.35272125  0.98815674    -0.74100
O1182       O  0.62519821  0.30599080  0.95147140    -0.73900
O1183       O  0.66038799  0.26241568  0.02860584    -0.73400
O1184       O  0.72849719  0.34081144  0.95375427    -0.74100
O1185       O  0.72522915  0.31339003  0.03880101    -0.73700
O1186       O  0.59498825  0.26924654  0.98651457    -0.74300
O1187       O  0.61321849  0.37316004  0.02898618    -0.73700
O1188       O  0.69326530  0.40916714  0.94925380    -0.74400
O1189       O  0.60073637  0.30743645  0.03878544    -0.73800
O1190       O  0.67792351  0.43740429  0.98121317    -0.74300
O1191       O  0.71817732  0.43817102  0.03299687    -0.74200
O1192       O  0.76688199  0.41769044  0.03109787    -0.74000
C1193       C  0.76025696  0.34262497  0.96534780     0.77800
C1194       C  0.59384420  0.27583732  0.96314704     0.78300
C1195       C  0.69626451  0.27445575  0.03899444     0.77200
C1196       C  0.59113078  0.33681680  0.03997059     0.77600
C1197       C  0.68973245  0.43931951  0.95864512     0.78800
C1198       C  0.75517825  0.44400763  0.03754274     0.77800
C1199       C  0.71455972  0.20834554  0.08587648     0.80900
N1200       N  0.73575247  0.19418434  0.07196752    -0.77400
C1201       C  0.74199687  0.20370891  0.04729330     0.83300
N1202       N  0.72757758  0.22851829  0.03635783    -0.77400
C1203       C  0.70635480  0.24308026  0.05015943     0.83400
N1204       N  0.69987391  0.23294507  0.07492034    -0.79100
C1205       C  0.71067796  0.01884913  0.90757714     0.80900
N1206       N  0.69242079  0.47852776  0.91946137    -0.77400
C1207       C  0.70291099  0.47900826  0.94396941     0.83300
N1208       N  0.72826369  0.01604813  0.95679760    -0.77400
C1209       C  0.74399203  0.05425351  0.94457610     0.83400
N1210       N  0.73486997  0.05569161  0.92002229    -0.79100
C1211       C  0.00039920  0.30392307  0.09385327     0.80900
N1212       N  0.96545248  0.28095040  0.07965396    -0.77400
C1213       C  0.96922993  0.27472609  0.05530890     0.83300
N1214       N  0.00831333  0.29083735  0.04506233    -0.77400
C1215       C  0.55074612  0.32581912  0.05202467     0.82000
N1216       N  0.54901413  0.33659314  0.07594862    -0.79100
C1217       C  0.51724537  0.20588434  0.91610074     0.80900
N1218       N  0.98161260  0.19867282  0.92743274    -0.77400
C1219       C  0.97968303  0.21040517  0.95093565     0.83300
N1220       N  0.51678790  0.23878070  0.96070477    -0.77400
C1221       C  0.55431788  0.24872370  0.94990429     0.83400
N1222       N  0.55459304  0.23235978  0.92745891    -0.79100
C1223       C  0.82421986  0.52241634  0.08379483     0.80900
N1224       N  0.83201878  0.04794517  0.07599437    -0.77400
C1225       C  0.82187114  0.04905422  0.05157130     0.83300
N1226       N  0.80024210  0.52085518  0.03556023    -0.77400
C1227       C  0.78571637  0.48386013  0.04894817     0.83400
N1228       N  0.79774266  0.48459191  0.07304612    -0.79100
Zn1229     Zn  0.82903495  0.09591278  0.51347101     1.49700
Zn1230     Zn  0.86501330  0.19567988  0.51167852     1.49400
Zn1231     Zn  0.81905260  0.14216542  0.46316690     1.49100
Zn1232     Zn  0.76603437  0.13272393  0.51303354     1.49500
O1233       O  0.81990481  0.14147539  0.50011690    -1.83500
O1234       O  0.88596443  0.11878488  0.53211823    -0.74100
O1235       O  0.90328545  0.22907610  0.48295225    -0.73900
O1236       O  0.80948841  0.08464262  0.45091386    -0.73400
O1237       O  0.90400417  0.18717466  0.53471795    -0.74100
O1238       O  0.82196849  0.05670807  0.48551554    -0.73700
O1239       O  0.87515634  0.19088530  0.44892194    -0.74300
O1240       O  0.73314767  0.14187681  0.48560426    -0.73700
O1241       O  0.84224205  0.22916635  0.52954297    -0.74400
O1242       O  0.77113591  0.15250571  0.45109954    -0.73800
O1243       O  0.77490129  0.17911868  0.53579132    -0.74300
O1244       O  0.73173642  0.07539391  0.53115415    -0.74200
O1245       O  0.78114666  0.05636938  0.53629686    -0.74000
C1246       C  0.91065556  0.15641238  0.53981276     0.77800
C1247       C  0.90496542  0.22301644  0.45977795     0.78300
C1248       C  0.81191504  0.05448166  0.46248767     0.77200
C1249       C  0.74007834  0.15180169  0.46250427     0.77600
C1250       C  0.80550967  0.21673708  0.53859949     0.78800
C1251       C  0.74378908  0.04991933  0.53986700     0.77800
C1252       C  0.80232146  0.28982987  0.58463958     0.80900
N1253       N  0.77412845  0.29933896  0.57323123    -0.77400
C1254       C  0.75755657  0.28332227  0.55066407     0.83300
N1255       N  0.76873097  0.25719259  0.53943986    -0.77400
C1256       C  0.79625172  0.24695459  0.55067364     0.83400
N1257       N  0.81296837  0.26320585  0.57323175    -0.79100
Zn1258     Zn  0.60298533  0.25196198  0.48877907     1.49700
Zn1259     Zn  0.64075653  0.35240520  0.48813322     1.49400
Zn1260     Zn  0.65070314  0.30408153  0.53677606     1.49100
Zn1261     Zn  0.70281928  0.31548832  0.48780164     1.49500
O1262       O  0.64889631  0.30570661  0.50032601    -1.83500
O1263       O  0.56408323  0.26239757  0.46572233    -0.74100
O1264       O  0.64892710  0.39119545  0.51612544    -0.73900
O1265       O  0.59370164  0.25912957  0.55079670    -0.73400
O1266       O  0.58478464  0.33132962  0.46976071    -0.74100
O1267       O  0.56344720  0.21941404  0.51755546    -0.73700
O1268       O  0.66421197  0.36168938  0.54887610    -0.74300
O1269       O  0.73583815  0.30611858  0.51490769    -0.73700
O1270       O  0.68793465  0.39324610  0.46612682    -0.74400
O1271       O  0.69675014  0.29182062  0.54922868    -0.73800
O1272       O  0.73728425  0.37425585  0.47145548    -0.74300
O1273       O  0.69409108  0.26986447  0.46461578    -0.74200
O1274       O  0.62740325  0.21835225  0.47193391    -0.74000
C1275       C  0.55884307  0.29447003  0.46162313     0.77800
C1276       C  0.66163311  0.39249345  0.53848642     0.78300
C1277       C  0.56251080  0.22754200  0.54047934     0.77200
C1278       C  0.72874485  0.29484482  0.53780749     0.77600
C1279       C  0.72560710  0.40038971  0.46343411     0.78800
C1280       C  0.66427187  0.23157279  0.46265721     0.77800
C1281       C  0.67607270  0.97055185  0.58832541     0.80900
N1282       N  0.66166406  0.42798728  0.57624184    -0.77400
C1283       C  0.67476725  0.43111230  0.55246115     0.83300
N1284       N  0.70060633  0.97286664  0.54051076    -0.77400
C1285       C  0.71345561  0.00990728  0.55248436     0.83400
N1286       N  0.70110127  0.00886058  0.57648293    -0.79100
C1287       C  0.48579031  0.17786080  0.59288380     0.80900
N1288       N  0.52297831  0.19785131  0.57984070    -0.77400
C1289       C  0.52282879  0.20198501  0.55455756     0.83300
N1290       N  0.48529972  0.18699198  0.54234939    -0.77400
C1291       C  0.94961461  0.16675780  0.55362692     0.83400
N1292       N  0.94923042  0.16364478  0.57894850    -0.79100
C1293       C  0.98262315  0.29899298  0.41286437     0.80900
N1294       N  0.52058323  0.30752597  0.42709632    -0.77400
C1295       C  0.51976715  0.28743929  0.44907480     0.83300
N1296       N  0.98177506  0.26329091  0.45813341    -0.77400
C1297       C  0.94452243  0.25244986  0.44646692     0.83400
N1298       N  0.94486936  0.26994420  0.42355724    -0.79100
C1299       C  0.68510157  0.17769121  0.41214490     0.80900
N1300       N  0.70774764  0.16200540  0.42428837    -0.77400
C1301       C  0.71313940  0.16581909  0.44935965     0.83300
N1302       N  0.69667658  0.18641980  0.46208415    -0.77400
C1303       C  0.67438626  0.20249816  0.44990333     0.83400
N1304       N  0.66916066  0.19852536  0.42491278    -0.79100
C1305       C  0.79339133  0.47876877  0.41542962     0.80900
N1306       N  0.81105138  0.01287405  0.42622198    -0.77400
C1307       C  0.79925985  0.01403540  0.45006121     0.83300
N1308       N  0.77004343  0.47782045  0.46339551    -0.77400
C1309       C  0.75613118  0.44060269  0.45138565     0.83400
N1310       N  0.76810565  0.44118448  0.42757506    -0.79100
C1311       C  0.50874472  0.01003032  0.22563577     0.46100
H1312       H  0.50500988  0.00834202  0.20512820    -0.02900
C1313       C  0.51671445  0.01008389  0.27349114     0.46200
H1314       H  0.51979036  0.00900915  0.29405666    -0.02900
C1315       C  0.96388344  0.99801491  0.24062060    -0.16600
C1316       C  0.51533699  0.47927532  0.23771982    -0.16300
C1317       C  0.54838718  0.05072808  0.23453824    -0.16700
C1318       C  0.96165586  0.50586868  0.26498182    -0.16700
C1319       C  0.51988988  0.47951367  0.26313917    -0.16300
C1320       C  0.55257311  0.05044371  0.26022057    -0.16600
C1321       C  0.82702700  0.98889258  0.34639389    -0.11200
C1322       C  0.84137846  0.47074907  0.34432986     0.11400
C1323       C  0.84562927  0.44934544  0.36574982    -0.03000
C1324       C  0.82886588  0.45262930  0.38843097    -0.05800
C1325       C  0.80918327  0.47739555  0.39049021    -0.16500
C1326       C  0.80992186  0.99286697  0.36894844     0.02400
C1327       C  0.86909743  0.47940990  0.32245087     0.12300
C1328       C  0.86890682  0.42416421  0.36482585     0.63000
H1329       H  0.83228292  0.43692387  0.40510519     0.12400
C1330       C  0.78742545  0.01880278  0.36948009     0.55100
H1331       H  0.82633166  0.00629521  0.32976415     0.08200
C1332       C  0.85647591  0.45608054  0.30021257    -0.05600
C1333       C  0.88758346  0.46530030  0.28181448    -0.06400
C1334       C  0.92934469  0.49967467  0.28413417    -0.16000
C1335       C  0.94672545  0.01861138  0.30663334    -0.01600
C1336       C  0.91703380  0.00686750  0.32573254    -0.09100
C1337       C  0.81055759  0.42275784  0.29573648     0.65200
H1338       H  0.87943302  0.44565011  0.26553468     0.10600
C1339       C  0.98793537  0.05955570  0.31078085     0.63600
H1340       H  0.92581862  0.02521523  0.34267118     0.08000
F1341       F  0.78375308  0.03308861  0.34582915    -0.19500
F1342       F  0.80983538  0.05409362  0.38410567    -0.15700
F1343       F  0.74702382  0.99393501  0.37915634    -0.19200
F1344       F  0.91090379  0.45070476  0.35830029    -0.22600
F1345       F  0.84984464  0.39267618  0.34744998    -0.24100
F1346       F  0.86805478  0.40468931  0.38760156    -0.18000
F1347       F  0.97955038  0.09063947  0.31908425    -0.20500
F1348       F  0.51423920  0.08976910  0.28648826    -0.21700
F1349       F  0.01189676  0.05257900  0.32857394    -0.18900
F1350       F  0.80461125  0.40647157  0.27199872    -0.19000
F1351       F  0.78507791  0.44094484  0.29815197    -0.22800
F1352       F  0.79772168  0.38937717  0.31285721    -0.24400
C1353       C  0.62903281  0.13887472  0.35089239    -0.11200
C1354       C  0.66337250  0.14874221  0.33518645     0.11400
C1355       C  0.70537043  0.17270948  0.34387750    -0.03000
C1356       C  0.71154251  0.18322331  0.36924037    -0.05800
C1357       C  0.67687066  0.17092253  0.38536527    -0.16500
C1358       C  0.63488425  0.14933152  0.37603831     0.02400
C1359       C  0.65218671  0.12874534  0.31073561     0.12300
C1360       C  0.74281692  0.18539632  0.32666146     0.63000
H1361       H  0.74335342  0.20003962  0.37684011     0.12400
C1362       C  0.59624799  0.13537598  0.39261829     0.55100
H1363       H  0.59724677  0.12112032  0.34335486     0.08200
C1364       C  0.63624364  0.08440643  0.30974827    -0.05600
C1365       C  0.60546342  0.06155645  0.29204421    -0.06400
C1366       C  0.58974580  0.08086360  0.27523075    -0.16000
C1367       C  0.60830624  0.12619165  0.27497667    -0.01600
C1368       C  0.64077929  0.14936181  0.29223285    -0.09100
C1369       C  0.64652126  0.05874707  0.32874685     0.65200
H1370       H  0.59110284  0.02732274  0.29290093     0.10600
C1371       C  0.59354923  0.15210908  0.25926407     0.63600
H1372       H  0.65310061  0.18343124  0.29357012     0.08000
F1373       F  0.55869433  0.11002198  0.38009357    -0.19500
F1374       F  0.59506208  0.17083739  0.40063802    -0.15700
F1375       F  0.59798923  0.11204933  0.41306889    -0.19200
F1376       F  0.73990964  0.20786731  0.30612992    -0.22600
F1377       F  0.74291553  0.14939236  0.31860071    -0.24100
F1378       F  0.78102773  0.21093486  0.33849517    -0.18000
F1379       F  0.62479253  0.17730671  0.24215525    -0.20500
F1380       F  0.05083302  0.11683827  0.24864897    -0.21700
F1381       F  0.58668819  0.17840633  0.27455718    -0.18900
F1382       F  0.65821312  0.03303737  0.31634063    -0.19000
F1383       F  0.61078987  0.03310460  0.34294747    -0.22800
F1384       F  0.67923280  0.08384279  0.34464992    -0.24400
C1385       C  0.50061357  0.38475585  0.36667791    -0.11200
C1386       C  0.98727822  0.35638582  0.34062434     0.11400
C1387       C  0.97748419  0.31319215  0.34273278    -0.03000
C1388       C  0.97572454  0.29538351  0.36673102    -0.05800
C1389       C  0.98357821  0.31931043  0.38834272    -0.16500
C1390       C  0.49822378  0.36562909  0.39031105     0.02400
C1391       C  0.98826351  0.37823192  0.31656594     0.12300
C1392       C  0.96856153  0.28441733  0.32065029     0.63000
H1393       H  0.96842249  0.26244804  0.36861092     0.12400
C1394       C  0.50929191  0.39206974  0.41362276     0.55100
H1395       H  0.51165258  0.41864118  0.36506450     0.08200
C1396       C  0.95344420  0.38291097  0.30877268    -0.05600
C1397       C  0.95888442  0.41066686  0.28856952    -0.06400
C1398       C  0.99733779  0.43250185  0.27545602    -0.16000
C1399       C  0.54208302  0.43028656  0.28716151    -0.01600
C1400       C  0.53319497  0.40293254  0.30832789    -0.09100
C1401       C  0.91115343  0.35954507  0.32222873     0.65200
H1402       H  0.93356209  0.41705343  0.28348342     0.10600
C1403       C  0.58307154  0.44452182  0.27300782     0.63600
H1404       H  0.55679239  0.39540745  0.31554244     0.08000
F1405       F  0.47571668  0.37345379  0.43026734    -0.19500
F1406       F  0.51762002  0.43324596  0.40826802    -0.15700
F1407       F  0.54488234  0.39435397  0.42479794    -0.19200
F1408       F  0.99813168  0.27085229  0.32034368    -0.22600
F1409       F  0.97018592  0.30402999  0.29785835    -0.24100
F1410       F  0.92854332  0.24913933  0.32326539    -0.18000
F1411       F  0.57375213  0.42682050  0.24968558    -0.20500
F1412       F  0.60596581  0.48811977  0.27047156    -0.21700
F1413       F  0.09868139  0.42941327  0.27506172    -0.18900
F1414       F  0.88058488  0.36590461  0.31031359    -0.19000
F1415       F  0.42202344  0.38408911  0.34763454    -0.22800
F1416       F  0.89693738  0.31622608  0.32295353    -0.24400
C1417       C  0.88284657  0.01928850  0.20592475    -0.11200
C1418       C  0.87354790  0.50236608  0.18306731     0.11400
C1419       C  0.88258351  0.46873531  0.18613979    -0.03000
C1420       C  0.90362406  0.46704939  0.20786056    -0.05800
C1421       C  0.92578289  0.99249169  0.22634107    -0.16500
C1422       C  0.91031654  0.02203431  0.22552912     0.02400
C1423       C  0.85980517  0.51132726  0.15873422     0.12300
C1424       C  0.87379640  0.43720072  0.16559727     0.63000
H1425       H  0.91364788  0.44338607  0.20968198     0.12400
C1426       C  0.92304203  0.05830738  0.24344548     0.55100
H1427       H  0.87307597  0.04313138  0.20389394     0.08200
C1428       C  0.81665649  0.49522375  0.15268996    -0.05600
C1429       C  0.80622401  0.50024841  0.12794521    -0.06400
C1430       C  0.83780584  0.52251167  0.10981297    -0.16000
C1431       C  0.87550674  0.02390348  0.11991268    -0.01600
C1432       C  0.88667458  0.01818123  0.14431125    -0.09100
C1433       C  0.78224346  0.47375287  0.17241861     0.65200
H1434       H  0.77327687  0.48689813  0.12252823     0.10600
C1435       C  0.90982771  0.04503296  0.10008263     0.63600
H1436       H  0.91959616  0.02924388  0.14897098     0.08000
F1437       F  0.89144857  0.04637045  0.26110501    -0.19500
F1438       F  0.92825737  0.09451612  0.23072710    -0.15700
F1439       F  0.96064207  0.06950779  0.25537524    -0.19200
F1440       F  0.90038491  0.45785420  0.14553823    -0.22600
F1441       F  0.83218688  0.41931013  0.15770314    -0.24100
F1442       F  0.88046359  0.40434413  0.17376167    -0.18000
F1443       F  0.91313973  0.08336596  0.09225011    -0.20500
F1444       F  0.89992215  0.01861902  0.07990121    -0.21700
F1445       F  0.94913004  0.05336288  0.10899248    -0.18900
F1446       F  0.74211704  0.45816553  0.16229155    -0.19000
F1447       F  0.78780858  0.50306460  0.19024846    -0.22800
F1448       F  0.78421136  0.44004728  0.18392856    -0.24400
C1449       C  0.51093637  0.33954065  0.15688787    -0.11200
C1450       C  0.98149894  0.34352939  0.16508004     0.11400
C1451       C  0.95716661  0.34270306  0.14401567    -0.03000
C1452       C  0.96328911  0.32750052  0.12159295    -0.05800
C1453       C  0.99417635  0.31517900  0.11919140    -0.16500
C1454       C  0.51519966  0.32251874  0.13443106     0.02400
C1455       C  0.98778387  0.37256418  0.18556631     0.12300
C1456       C  0.92745037  0.36114412  0.14454625     0.63000
H1457       H  0.94576579  0.32783492  0.10515180     0.12400
C1458       C  0.52804959  0.28844188  0.13483994     0.55100
H1459       H  0.51772511  0.32903821  0.17461437     0.08200
C1460       C  0.96154010  0.36131850  0.20684008    -0.05600
C1461       C  0.96502181  0.39434943  0.22193529    -0.06400
C1462       C  0.99637089  0.43723642  0.21742727    -0.16000
C1463       C  0.54912848  0.45704589  0.20455877    -0.01600
C1464       C  0.54299046  0.43043906  0.18462014    -0.09100
C1465       C  0.93269479  0.31492865  0.21443357     0.65200
H1466       H  0.94358500  0.38678789  0.23750552     0.10600
C1467       C  0.59259734  0.49601280  0.20649332     0.63600
H1468       H  0.56872933  0.43897898  0.17153160     0.08000
F1469       F  0.53286469  0.27675746  0.15897026    -0.19500
F1470       F  0.56623318  0.30356505  0.12245025    -0.15700
F1471       F  0.49734005  0.25250881  0.12310928    -0.19200
F1472       F  0.95027782  0.40433540  0.14904333    -0.22600
F1473       F  0.89742404  0.34104381  0.16305587    -0.24100
F1474       F  0.90608502  0.35590903  0.12217282    -0.18000
F1475       F  0.62350079  0.48433303  0.20477902    -0.20500
F1476       F  0.59817656  0.01018082  0.22643299    -0.21700
F1477       F  0.59756370  0.52382845  0.18703704    -0.18900
F1478       F  0.90904426  0.31096246  0.23543527    -0.19000
F1479       F  0.95730464  0.29628760  0.21981256    -0.22800
F1480       F  0.90499275  0.29281058  0.19544953    -0.24400
C1481       C  0.60073418  0.12029365  0.17595345    -0.11200
C1482       C  0.64338604  0.13379333  0.18035136     0.11400
C1483       C  0.65620592  0.12511285  0.20365605    -0.03000
C1484       C  0.62457020  0.09816275  0.22085318    -0.05800
C1485       C  0.58087198  0.08289292  0.21635019    -0.16500
C1486       C  0.56941908  0.09680572  0.19379633     0.02400
C1487       C  0.67242101  0.15490941  0.15908039     0.12300
C1488       C  0.70284426  0.14484684  0.21036753     0.63000
H1489       H  0.63422125  0.08799084  0.23757440     0.12400
C1490       C  0.52543466  0.08929766  0.18761738     0.55100
H1491       H  0.59186795  0.12840756  0.15806198     0.08200
C1492       C  0.67514529  0.13017054  0.13991618    -0.05600
C1493       C  0.69175876  0.14994028  0.11678912    -0.06400
C1494       C  0.70424809  0.19295140  0.11201666    -0.16000
C1495       C  0.70516797  0.21866681  0.13177544    -0.01600
C1496       C  0.68896995  0.19895569  0.15520670    -0.09100
C1497       C  0.65609811  0.08214597  0.14273932     0.65200
H1498       H  0.69177064  0.13083569  0.10154978     0.10600
C1499       C  0.72207361  0.26620581  0.12810317     0.63600
H1500       H  0.68618879  0.21716776  0.17008074     0.08000
F1501       F  0.52778539  0.12394718  0.17441501    -0.19500
F1502       F  0.50298083  0.08463382  0.20890486    -0.15700
F1503       F  0.49970492  0.55800010  0.17331823    -0.19200
F1504       F  0.72110199  0.18878214  0.20986852    -0.22600
F1505       F  0.72375804  0.13346642  0.19349705    -0.24100
F1506       F  0.70852720  0.13208638  0.23403467    -0.18000
F1507       F  0.69277456  0.27307850  0.11508216    -0.20500
F1508       F  0.75988550  0.28459446  0.11494879    -0.21700
F1509       F  0.72978383  0.28638625  0.15073084    -0.18900
F1510       F  0.66788916  0.06557230  0.12336717    -0.19000
F1511       F  0.61237435  0.06305152  0.14273942    -0.22800
F1512       F  0.66944443  0.07176461  0.16475678    -0.24400
C1513       C  0.86587797  0.41676819  0.80255665    -0.11200
C1514       C  0.87084539  0.38446673  0.81444670     0.11400
C1515       C  0.89346631  0.36738531  0.80266497    -0.03000
C1516       C  0.91812580  0.38946623  0.78189507    -0.05800
C1517       C  0.91803710  0.42564494  0.77194569    -0.16500
C1518       C  0.88831233  0.43687054  0.78054749     0.02400
C1519       C  0.85714406  0.37288168  0.84045152     0.12300
C1520       C  0.89295124  0.32737505  0.81265298     0.63000
H1521       H  0.93970409  0.38027735  0.77418112     0.12400
C1522       C  0.87989393  0.46894805  0.76646241     0.55100
H1523       H  0.84602774  0.42735059  0.81126013     0.08200
C1524       C  0.88631121  0.38982324  0.86048301    -0.05600
C1525       C  0.87242687  0.37295292  0.88445693    -0.06400
C1526       C  0.83049678  0.34147076  0.88905117    -0.16000
C1527       C  0.80069178  0.32596271  0.86928447    -0.01600
C1528       C  0.81477400  0.34228645  0.84509692    -0.09100
C1529       C  0.93231276  0.42497243  0.85801886     0.65200
H1530       H  0.89455385  0.38506953  0.89994426     0.10600
C1531       C  0.75441210  0.29196875  0.87228375     0.63600
H1532       H  0.79283434  0.33010674  0.82955088     0.08000
F1533       F  0.85085503  0.47615896  0.77884672    -0.19500
F1534       F  0.86343136  0.45322665  0.74324229    -0.15700
F1535       F  0.91668960  0.50751204  0.76331798    -0.19200
F1536       F  0.85144768  0.29477108  0.81517462    -0.22600
F1537       F  0.91271724  0.33471105  0.83564385    -0.24100
F1538       F  0.91347921  0.31397893  0.79666885    -0.18000
F1539       F  0.72917964  0.30963815  0.86615188    -0.20500
F1540       F  0.74408808  0.27454912  0.89616962    -0.21700
F1541       F  0.74521111  0.25914935  0.85619638    -0.18900
F1542       F  0.93950258  0.45782157  0.87361388    -0.19000
F1543       F  0.94374490  0.44203152  0.83414430    -0.22800
F1544       F  0.95820022  0.40871220  0.86538317    -0.24400
C1545       C  0.54447281  0.12653657  0.81668930    -0.11200
C1546       C  0.50595677  0.11420206  0.82848606     0.11400
C1547       C  0.97592947  0.09785967  0.81612095    -0.03000
C1548       C  0.97779350  0.07222445  0.79750793    -0.05800
C1549       C  0.50893703  0.07078178  0.78640891    -0.16500
C1550       C  0.54687190  0.10538199  0.79579237     0.02400
C1551       C  0.50741384  0.13650546  0.85131693     0.12300
C1552       C  0.93359699  0.08799433  0.82713787     0.63000
H1553       H  0.94957238  0.04298508  0.79298444     0.12400
C1554       C  0.58984740  0.12118767  0.78416018     0.55100
H1555       H  0.57290848  0.15300503  0.82424902     0.08200
C1556       C  0.51561692  0.12328635  0.87485046    -0.05600
C1557       C  0.51928393  0.14746728  0.89567579    -0.06400
C1558       C  0.51665032  0.18471841  0.89323572    -0.16000
C1559       C  0.01352623  0.21104456  0.86968083    -0.01600
C1560       C  0.01155384  0.19034136  0.84741256    -0.09100
C1561       C  0.52183080  0.08474614  0.87779044     0.65200
H1562       H  0.52429856  0.13757734  0.91409067     0.10600
C1563       C  0.00763267  0.24981858  0.86930778     0.63600
H1564       H  0.00537996  0.20162452  0.82977160     0.08000
F1565       F  0.62252620  0.14624050  0.80022406    -0.19500
F1566       F  0.10261006  0.16143373  0.76051599    -0.15700
F1567       F  0.59518223  0.08753045  0.77776770    -0.19200
F1568       F  0.92761500  0.12262962  0.82298423    -0.22600
F1569       F  0.42131559  0.05584190  0.85380539    -0.24100
F1570       F  0.90008737  0.05294164  0.81628049    -0.18000
F1571       F  0.00259791  0.26166037  0.84526124    -0.20500
F1572       F  0.04281959  0.28386487  0.87969237    -0.21700
F1573       F  0.97204416  0.24105095  0.88299432    -0.18900
F1574       F  0.52975721  0.07790426  0.90234552    -0.19000
F1575       F  0.55602474  0.09107383  0.86357650    -0.22800
F1576       F  0.48605213  0.04845398  0.87000518    -0.24400
C1577       C  0.57987811  0.47003713  0.81773604    -0.11200
C1578       C  0.62707944  0.00717292  0.81417204     0.11400
C1579       C  0.63748448  0.02561644  0.78990791    -0.03000
C1580       C  0.60430264  0.01567887  0.77262899    -0.05800
C1581       C  0.56135898  0.98667295  0.77848664    -0.16500
C1582       C  0.54721015  0.45938663  0.80038195     0.02400
C1583       C  0.65776671  0.01892785  0.83521108     0.12300
C1584       C  0.68317774  0.05572432  0.78242036     0.63000
H1585       H  0.61179851  0.03281664  0.75490398     0.12400
C1586       C  0.50522862  0.41991705  0.80668910     0.55100
H1587       H  0.57335969  0.45337562  0.83568549     0.08200
C1588       C  0.65871635  0.04599845  0.85417812    -0.05600
C1589       C  0.67896900  0.04701171  0.87690547    -0.06400
C1590       C  0.69689355  0.02087106  0.88157207    -0.16000
C1591       C  0.69206338  0.49166165  0.86103418    -0.01600
C1592       C  0.67247624  0.49148426  0.83811195    -0.09100
C1593       C  0.63576682  0.07139824  0.85113926     0.65200
H1594       H  0.67829007  0.06611189  0.89194817     0.10600
C1595       C  0.71444012  0.46575624  0.86414185     0.63600
H1596       H  0.67171705  0.47144880  0.82319961     0.08000
F1597       F  0.47621308  0.43094688  0.81463911    -0.19500
F1598       F  0.50927899  0.39533279  0.82567834    -0.15700
F1599       F  0.01022287  0.38620920  0.76658304    -0.19200
F1600       F  0.70642895  0.03500704  0.78530785    -0.22600
F1601       F  0.70061214  0.09115822  0.79723461    -0.24100
F1602       F  0.68647639  0.06942744  0.75772977    -0.18000
F1603       F  0.69229277  0.43205108  0.88076692    -0.20500
F1604       F  0.75513430  0.49134469  0.87299459    -0.21700
F1605       F  0.71739516  0.44916075  0.84172795    -0.18900
F1606       F  0.64371166  0.09834380  0.87087706    -0.19000
F1607       F  0.59253583  0.04385710  0.84995999    -0.22800
F1608       F  0.64884804  0.09611042  0.82948534    -0.24400
C1609       C  0.87821056  0.34042851  0.63966764    -0.11200
C1610       C  0.85657576  0.35698915  0.65263740     0.11400
C1611       C  0.81646349  0.34940327  0.64427123    -0.03000
C1612       C  0.79935124  0.32544659  0.62275121    -0.05800
C1613       C  0.82133250  0.30968943  0.60899974    -0.16500
C1614       C  0.86130377  0.31638586  0.61804194     0.02400
C1615       C  0.87740941  0.38287086  0.67476525     0.12300
C1616       C  0.79222199  0.36726019  0.65771994     0.63000
H1617       H  0.76869031  0.31975122  0.61619021     0.12400
C1618       C  0.88688512  0.29943147  0.60514126     0.55100
H1619       H  0.90899448  0.34708134  0.64664021     0.08200
C1620       C  0.87872772  0.36406545  0.69795552    -0.05600
C1621       C  0.90260569  0.39083130  0.71739956    -0.06400
C1622       C  0.92550044  0.43557515  0.71434395    -0.16000
C1623       C  0.91930199  0.45389573  0.69200439    -0.01600
C1624       C  0.89713647  0.42725953  0.67216141    -0.09100
C1625       C  0.85750524  0.31595882  0.70166431     0.65200
H1626       H  0.90659669  0.37626304  0.73419149     0.10600
C1627       C  0.93285057  0.50064875  0.68910839     0.63600
H1628       H  0.89504638  0.44119086  0.65438273     0.08000
F1629       F  0.86430245  0.25531687  0.60533808    -0.19500
F1630       F  0.92518285  0.31142825  0.61699620    -0.15700
F1631       F  0.89584106  0.31516450  0.58081954    -0.19200
F1632       F  0.81389044  0.41126131  0.65554986    -0.22600
F1633       F  0.78782845  0.35533404  0.68272530    -0.24100
F1634       F  0.75202458  0.35264552  0.64787163    -0.18000
F1635       F  0.97264490  0.52271471  0.67840679    -0.20500
F1636       F  0.93291594  0.03647058  0.71000004    -0.21700
F1637       F  0.90468522  0.50614209  0.67391786    -0.18900
F1638       F  0.85724714  0.30435520  0.72653894    -0.19000
F1639       F  0.87911563  0.30054086  0.68824554    -0.22800
F1640       F  0.81588060  0.29684287  0.69357692    -0.24400
C1641       C  0.54857893  0.14596587  0.69584922    -0.11200
C1642       C  0.51192457  0.14962143  0.69586841     0.11400
C1643       C  0.98426012  0.13917809  0.71612601    -0.03000
C1644       C  0.99038291  0.11128605  0.73217517    -0.05800
C1645       C  0.52037653  0.09317839  0.72974444    -0.16500
C1646       C  0.55412332  0.11909306  0.71298624     0.02400
C1647       C  0.50044425  0.16328316  0.67195232     0.12300
C1648       C  0.94617881  0.14476238  0.72038720     0.63000
H1649       H  0.96674821  0.09337937  0.74634616     0.12400
C1650       C  0.59742292  0.12237446  0.71315319     0.55100
H1651       H  0.57206949  0.16227280  0.68129574     0.08200
C1652       C  0.52825247  0.20170989  0.65900601    -0.05600
C1653       C  0.52164085  0.20541308  0.63338223    -0.06400
C1654       C  0.48682387  0.17320048  0.62060089    -0.16000
C1655       C  0.95665478  0.14088617  0.63384936    -0.01600
C1656       C  0.96376684  0.13818036  0.65954629    -0.09100
C1657       C  0.56511793  0.23952760  0.67126024     0.65200
H1658       H  0.54420375  0.23401217  0.62321360     0.10600
C1659       C  0.91943835  0.10298966  0.62171888     0.63600
H1660       H  0.94400940  0.10879754  0.66985877     0.08000
F1661       F  0.62757874  0.16283745  0.72028724    -0.19500
F1662       F  0.60801435  0.11711442  0.68943683    -0.15700
F1663       F  0.59957840  0.09307148  0.72926432    -0.19200
F1664       F  0.91014235  0.11018132  0.71118194    -0.22600
F1665       F  0.95130160  0.18179444  0.70887474    -0.24100
F1666       F  0.94076637  0.14725225  0.74570772    -0.18000
F1667       F  0.89669589  0.06993950  0.63870132    -0.20500
F1668       F  0.93404693  0.08747753  0.60323514    -0.21700
F1669       F  0.89165791  0.11512555  0.61162901    -0.18900
F1670       F  0.56229357  0.27580828  0.66609886    -0.19000
F1671       F  0.60289170  0.24537987  0.66167030    -0.22800
F1672       F  0.56551057  0.23463349  0.69693701    -0.24400
C1673       C  0.59564702  0.43412326  0.64321168    -0.11200
C1674       C  0.63268413  0.97167054  0.66184302     0.11400
C1675       C  0.67642272  0.99540392  0.65634160    -0.03000
C1676       C  0.68970645  0.99389937  0.63203582    -0.05800
C1677       C  0.66053180  0.96839148  0.61385502    -0.16500
C1678       C  0.61090162  0.43203706  0.61971623     0.02400
C1679       C  0.61349498  0.98173084  0.68276134     0.12300
C1680       C  0.70857637  0.02077534  0.67628758     0.63000
H1681       H  0.72290818  0.01274381  0.62698984     0.12400
C1682       C  0.57948206  0.40298537  0.60035106     0.55100
H1683       H  0.56195772  0.41627833  0.64722224     0.08200
C1684       C  0.60173692  0.01341743  0.67941360    -0.05600
C1685       C  0.57751888  0.01753490  0.69803106    -0.06400
C1686       C  0.56020936  0.98859840  0.71838148    -0.16000
C1687       C  0.55962922  0.44823938  0.71927766    -0.01600
C1688       C  0.58716327  0.44539580  0.70216512    -0.09100
C1689       C  0.61237114  0.04095366  0.65549511     0.65200
H1690       H  0.57012575  0.04279860  0.69573660     0.10600
C1691       C  0.53348707  0.40911036  0.73552562     0.63600
H1692       H  0.59358411  0.41915221  0.70367834     0.08000
F1693       F  0.53792503  0.38448548  0.60861218    -0.19500
F1694       F  0.58756265  0.37033260  0.59526207    -0.15700
F1695       F  0.58271896  0.42602397  0.57862649    -0.19200
F1696       F  0.70589263  0.99337360  0.69561793    -0.22600
F1697       F  0.70071600  0.05146625  0.68564969    -0.24100
F1698       F  0.74963645  0.04099211  0.66707231    -0.18000
F1699       F  0.52575537  0.37248983  0.72345590    -0.20500
F1700       F  0.49442164  0.40480458  0.74054258    -0.21700
F1701       F  0.55526929  0.41157990  0.75729680    -0.18900
F1702       F  0.59380566  0.06635839  0.65495027    -0.19000
F1703       F  0.59744760  0.01564821  0.63480212    -0.22800
F1704       F  0.65570589  0.06713300  0.65326058    -0.24400
C1705       C  0.48834923  0.49386203  0.77254647     0.46100
H1706       H  0.48459644  0.48863381  0.79292143    -0.02900
C1707       C  0.50336630  0.01293151  0.72536170     0.46200
H1708       H  0.50603433  0.02021929  0.70504965    -0.02900
C1709       C  0.95750288  0.97978263  0.75683880    -0.16600
C1710       C  0.50260432  0.54046789  0.76559409    -0.16300
C1711       C  0.52221404  0.48512505  0.76117257    -0.16700
C1712       C  0.96275865  0.98805279  0.73166618    -0.16700
C1713       C  0.50741522  0.54920151  0.74036097    -0.16300
C1714       C  0.52539940  0.49181127  0.73536945    -0.16600
Zn1715     Zn  0.89203109  0.73990347  0.97774927     1.49700
Zn1716     Zn  0.85613938  0.63967729  0.97973359     1.49400
Zn1717     Zn  0.84867479  0.68559558  0.02748221     1.49100
Zn1718     Zn  0.79243240  0.67596050  0.97937433     1.49500
O1719       O  0.84736763  0.68540419  0.99095348    -1.83500
O1720       O  0.93256781  0.73156835  0.95644674    -0.74100
O1721       O  0.84808384  0.59920850  0.00855535    -0.73900
O1722       O  0.90476078  0.73233487  0.03954033    -0.73400
O1723       O  0.91370690  0.66309792  0.96283184    -0.74100
O1724       O  0.93108479  0.77374238  0.00545237    -0.73700
O1725       O  0.83894847  0.62929523  0.04187103    -0.74300
O1726       O  0.76021480  0.68209574  0.00782826    -0.73700
O1727       O  0.80947822  0.60127068  0.95684939    -0.74400
O1728       O  0.80298475  0.69581104  0.04063548    -0.73800
O1729       O  0.75914676  0.61868900  0.96223615    -0.74300
O1730       O  0.79898336  0.72398977  0.95674789    -0.74200
O1731       O  0.86725656  0.77348884  0.95962547    -0.74000
C1732       C  0.93941193  0.70043446  0.95425502     0.77800
C1733       C  0.83948423  0.59819313  0.03162271     0.78300
C1734       C  0.93367684  0.76547855  0.02843194     0.77200
C1735       C  0.76972070  0.69272056  0.03047027     0.77600
C1736       C  0.77167225  0.59403414  0.95381779     0.78800
C1737       C  0.82933682  0.76165732  0.95254424     0.77800
C1738       C  0.81107155  0.82939925  0.90650594     0.80900
N1739       N  0.78877626  0.84220141  0.92053588    -0.77400
C1740       C  0.78152825  0.83070165  0.94499224     0.83300
N1741       N  0.79617075  0.80570395  0.95534075    -0.77400
C1742       C  0.81848979  0.79262162  0.94141075     0.83400
N1743       N  0.82588173  0.80440522  0.91686214    -0.79100
Zn1744     Zn  0.73137075  0.85716800  0.01044809     1.49700
Zn1745     Zn  0.67486156  0.84863338  0.96254446     1.49400
Zn1746     Zn  0.63166484  0.79532991  0.01287259     1.49100
Zn1747     Zn  0.66878983  0.89497677  0.01061735     1.49500
O1748       O  0.67674086  0.84901779  0.99909970    -1.83500
O1749       O  0.76496943  0.85351009  0.98195579    -0.74100
O1750       O  0.61709508  0.80206957  0.95087655    -0.73900
O1751       O  0.65491418  0.75955662  0.02958097    -0.73400
O1752       O  0.72044977  0.83728080  0.94978737    -0.74100
O1753       O  0.72372207  0.80761050  0.03118877    -0.73700
O1754       O  0.58994369  0.76331368  0.98580843    -0.74300
O1755       O  0.61036182  0.87170633  0.02702007    -0.73700
O1756       O  0.68701216  0.90653256  0.94820980    -0.74400
O1757       O  0.59476408  0.80489580  0.03633954    -0.73800
O1758       O  0.67983030  0.93708963  0.98194729    -0.74300
O1759       O  0.71482273  0.93057212  0.03483178    -0.74200
O1760       O  0.76390758  0.91119368  0.03027345    -0.74000
C1761       C  0.75456868  0.84166984  0.95956558     0.77800
C1762       C  0.58715763  0.77052260  0.96267441     0.78300
C1763       C  0.69297482  0.77047438  0.03575073     0.77200
C1764       C  0.58648491  0.83519716  0.03733514     0.77600
C1765       C  0.68840631  0.93840133  0.95880563     0.78800
C1766       C  0.75165523  0.93574344  0.03910423     0.77800
C1767       C  0.71308800  0.70662123  0.08302652     0.80900
N1768       N  0.73629330  0.69413724  0.06950036    -0.77400
C1769       C  0.74282214  0.70400888  0.04479537     0.83300
N1770       N  0.72679447  0.72719566  0.03369685    -0.77400
C1771       C  0.70349194  0.73968908  0.04706271     0.83400
N1772       N  0.69656677  0.72929099  0.07171146    -0.79100
C1773       C  0.70608605  0.51589324  0.90624619     0.80900
N1774       N  0.69511365  0.98057274  0.92009438    -0.77400
C1775       C  0.70357737  0.97913749  0.94481437     0.83300
N1776       N  0.72766359  0.51689177  0.95501520    -0.77400
C1777       C  0.74154718  0.55418187  0.94198993     0.83400
N1778       N  0.73051028  0.55367822  0.91767891    -0.79100
C1779       C  0.00612364  0.82673688  0.07919731     0.80900
N1780       N  0.97004960  0.80288465  0.06610727    -0.77400
C1781       C  0.97222676  0.79367874  0.04205292     0.83300
N1782       N  0.01061173  0.80775571  0.03121629    -0.77400
C1783       C  0.54626916  0.82560464  0.04898193     0.82000
N1784       N  0.54475873  0.83528672  0.07314149    -0.79100
C1785       C  0.51059811  0.70313668  0.91477513     0.80900
N1786       N  0.98083881  0.69174805  0.92124763    -0.77400
C1787       C  0.97972014  0.70915961  0.94313826     0.83300
N1788       N  0.50971365  0.73033498  0.96116223    -0.77400
C1789       C  0.54738888  0.74247486  0.94978003     0.83400
N1790       N  0.54777257  0.72891733  0.92649997    -0.79100
C1791       C  0.81789906  0.00978358  0.08838313     0.80900
N1792       N  0.83803271  0.55953981  0.07043389    -0.77400
C1793       C  0.82658735  0.55871902  0.04614677     0.83300
N1794       N  0.79674002  0.01212154  0.03985776    -0.77400
C1795       C  0.78175963  0.97410346  0.05212382     0.83400
N1796       N  0.79230096  0.97278982  0.07643503    -0.79100
Zn1797     Zn  0.82916445  0.59491564  0.51710054     1.49700
Zn1798     Zn  0.86503093  0.69524724  0.51761316     1.49400
Zn1799     Zn  0.81905878  0.64309090  0.46871677     1.49100
Zn1800     Zn  0.76583112  0.63238697  0.51862866     1.49500
O1801       O  0.81964150  0.64121757  0.50557648    -1.83500
O1802       O  0.88724657  0.61835742  0.53486219    -0.74100
O1803       O  0.90396145  0.72897038  0.48905486    -0.73900
O1804       O  0.80765742  0.58639582  0.45491771    -0.73400
O1805       O  0.90415844  0.68605765  0.54007888    -0.74100
O1806       O  0.82102688  0.55638661  0.48810701    -0.73700
O1807       O  0.87531175  0.69061943  0.45513144    -0.74300
O1808       O  0.73256950  0.64035335  0.49058328    -0.73700
O1809       O  0.84267806  0.72908824  0.53586552    -0.74400
O1810       O  0.77253913  0.65448230  0.45656749    -0.73800
O1811       O  0.77463532  0.68014925  0.54101772    -0.74300
O1812       O  0.73240845  0.57397633  0.53650679    -0.74200
O1813       O  0.78129845  0.55376253  0.53959887    -0.74000
C1814       C  0.91178646  0.65551401  0.54336571     0.77800
C1815       C  0.90541489  0.72248908  0.46591930     0.78300
C1816       C  0.80990614  0.55539809  0.46532291     0.77200
C1817       C  0.74033700  0.65164583  0.46763762     0.77600
C1818       C  0.80571357  0.71750372  0.54431298     0.78800
C1819       C  0.74406454  0.54734155  0.54376776     0.77800
C1820       C  0.80937311  0.79882886  0.58706645     0.80900
N1821       N  0.77919302  0.80613528  0.57642498    -0.77400
C1822       C  0.75844157  0.78539713  0.55565023     0.83300
N1823       N  0.76753189  0.75684669  0.54552514    -0.77400
C1824       C  0.79703593  0.74870151  0.55606341     0.83400
N1825       N  0.81824419  0.76998764  0.57674608    -0.79100
Zn1826     Zn  0.60563141  0.75469560  0.49122532     1.49700
Zn1827     Zn  0.64521832  0.85455725  0.48943461     1.49400
Zn1828     Zn  0.65182157  0.80663754  0.53963492     1.49100
Zn1829     Zn  0.70575155  0.81609110  0.49149336     1.49500
O1830       O  0.65185069  0.80785143  0.50305385    -1.83500
O1831       O  0.56809048  0.76521343  0.46753739    -0.74100
O1832       O  0.65248075  0.89372065  0.51667600    -0.73900
O1833       O  0.59374723  0.76183307  0.55289774    -0.73400
O1834       O  0.58993038  0.83448029  0.47046292    -0.74100
O1835       O  0.56506024  0.72278212  0.51924396    -0.73700
O1836       O  0.66451917  0.86466848  0.55092859    -0.74300
O1837       O  0.73754243  0.80746376  0.51943699    -0.73700
O1838       O  0.69365676  0.89382785  0.46768862    -0.74400
O1839       O  0.69757992  0.79421818  0.55329562    -0.73800
O1840       O  0.74169975  0.87329290  0.47372634    -0.74300
O1841       O  0.69637899  0.76890723  0.46972039    -0.74200
O1842       O  0.62827462  0.71968878  0.47510291    -0.74000
C1843       C  0.56358742  0.79747540  0.46272930     0.77800
C1844       C  0.66310060  0.89537919  0.53948424     0.78300
C1845       C  0.56294990  0.73060551  0.54204473     0.77200
C1846       C  0.72979075  0.79671053  0.54235591     0.77600
C1847       C  0.73085589  0.89965182  0.46497063     0.78800
C1848       C  0.66545229  0.73146112  0.46696558     0.77800
C1849       C  0.67268617  0.46343050  0.58939284     0.80900
N1850       N  0.66454763  0.93384554  0.57635449    -0.77400
C1851       C  0.67602281  0.93487633  0.55239545     0.83300
N1852       N  0.70073059  0.47007987  0.54192670    -0.77400
C1853       C  0.71321285  0.50599828  0.55513679     0.83400
N1854       N  0.69893867  0.50271037  0.57891621    -0.79100
C1855       C  0.48201226  0.67936762  0.59225720     0.80900
N1856       N  0.52034199  0.70042096  0.58043091    -0.77400
C1857       C  0.52231248  0.70482358  0.55512683     0.83300
N1858       N  0.48582333  0.68885889  0.54171114    -0.77400
C1859       C  0.95198510  0.66576780  0.55569492     0.83400
N1860       N  0.95358602  0.65988575  0.58072644    -0.79100
C1861       C  0.97972503  0.79204541  0.41616266     0.80900
N1862       N  0.52642574  0.80793570  0.42674033    -0.77400
C1863       C  0.52494573  0.79037027  0.44969792     0.83300
N1864       N  0.98239752  0.76396395  0.46315798    -0.77400
C1865       C  0.94432242  0.75135550  0.45205493     0.83400
N1866       N  0.94297382  0.76502344  0.42835629    -0.79100
C1867       C  0.68313635  0.67456183  0.41721147     0.80900
N1868       N  0.70645961  0.65955961  0.42930766    -0.77400
C1869       C  0.71302596  0.66485414  0.45429852     0.83300
N1870       N  0.69735543  0.68628032  0.46678742    -0.77400
C1871       C  0.67447378  0.70155790  0.45460715     0.83400
N1872       N  0.66769361  0.69595984  0.42981233    -0.79100
C1873       C  0.79833595  0.97457419  0.41546193     0.80900
N1874       N  0.80730609  0.51627072  0.42742516    -0.77400
C1875       C  0.79592590  0.51574765  0.45162863     0.83300
N1876       N  0.77434940  0.97691621  0.46280067    -0.77400
C1877       C  0.76173043  0.93884139  0.45214650     0.83400
N1878       N  0.77392607  0.93774480  0.42858856    -0.79100
C1879       C  0.50911075  0.51591301  0.22713910     0.46100
H1880       H  0.50447652  0.51368984  0.20665681    -0.02900
C1881       C  0.51907898  0.51775795  0.27488980     0.46200
H1882       H  0.52348636  0.51771244  0.29537941    -0.02900
C1883       C  0.95662593  0.50601586  0.23955230    -0.16600
C1884       C  0.51365388  0.97255438  0.23614669    -0.16300
C1885       C  0.54840850  0.55739945  0.23531753    -0.16700
C1886       C  0.96819230  0.99771590  0.26617750    -0.16700
C1887       C  0.51690308  0.97173345  0.26157721    -0.16300
C1888       C  0.55359963  0.55837754  0.26093463    -0.16600
C1889       C  0.81970439  0.49380266  0.34605087    -0.11200
C1890       C  0.84797023  0.96509855  0.34521086     0.11400
C1891       C  0.85094839  0.94335008  0.36685470    -0.03000
C1892       C  0.83306283  0.94652197  0.38914371    -0.05800
C1893       C  0.81404642  0.97200814  0.39069113    -0.16500
C1894       C  0.80323318  0.49739958  0.36896250     0.02400
C1895       C  0.87586972  0.97300584  0.32351799     0.12300
C1896       C  0.87405576  0.91795611  0.36660344     0.63000
H1897       H  0.83541802  0.93046498  0.40596264     0.12400
C1898       C  0.77995903  0.52247397  0.37022891     0.55100
H1899       H  0.81800853  0.51102561  0.32959982     0.08200
C1900       C  0.86300986  0.94981701  0.30123462    -0.05600
C1901       C  0.89384568  0.95918576  0.28262589    -0.06400
C1902       C  0.93584125  0.99298468  0.28501348    -0.16000
C1903       C  0.93995400  0.52546672  0.30561426    -0.01600
C1904       C  0.91014752  0.51359595  0.32466735    -0.09100
C1905       C  0.81708956  0.91633567  0.29699065     0.65200
H1906       H  0.88543856  0.93965908  0.26628392     0.10600
C1907       C  0.98124534  0.56648991  0.30946910     0.63600
H1908       H  0.91877776  0.53187511  0.34162126     0.08000
F1909       F  0.77272571  0.53434518  0.34667819    -0.19500
F1910       F  0.80378777  0.55904155  0.38363431    -0.15700
F1911       F  0.74107209  0.49791173  0.38180311    -0.19200
F1912       F  0.91640314  0.94437044  0.36079934    -0.22600
F1913       F  0.85577144  0.88674976  0.34901924    -0.24100
F1914       F  0.87192524  0.89817274  0.38947722    -0.18000
F1915       F  0.97346849  0.59672855  0.31977990    -0.20500
F1916       F  0.51478032  0.59184630  0.29145482    -0.21700
F1917       F  0.00712200  0.55894263  0.32546444    -0.18900
F1918       F  0.81135353  0.89779790  0.27393764    -0.19000
F1919       F  0.79194772  0.93512133  0.29792183    -0.22800
F1920       F  0.80369822  0.88446142  0.31516667    -0.24400
C1921       C  0.62461591  0.63040880  0.35726762    -0.11200
C1922       C  0.65672457  0.65315268  0.33957720     0.11400
C1923       C  0.69740438  0.68481812  0.34728166    -0.03000
C1924       C  0.70521395  0.69127087  0.37304934    -0.05800
C1925       C  0.67343368  0.66693898  0.39066571    -0.16500
C1926       C  0.63242741  0.63631230  0.38285160     0.02400
C1927       C  0.64692167  0.63756883  0.31384651     0.12300
C1928       C  0.73218366  0.71051947  0.32841570     0.63000
H1929       H  0.73616652  0.71498170  0.37966682     0.12400
C1930       C  0.59768671  0.60881444  0.40151264     0.55100
H1931       H  0.59372445  0.60637896  0.35077979     0.08200
C1932       C  0.63895024  0.59599475  0.30931964    -0.05600
C1933       C  0.60991478  0.57295890  0.29083910    -0.06400
C1934       C  0.59061514  0.59042698  0.27547494    -0.16000
C1935       C  0.60377631  0.63464377  0.27752778    -0.01600
C1936       C  0.63195843  0.65741033  0.29695425    -0.09100
C1937       C  0.65546356  0.57257588  0.32585320     0.65200
H1938       H  0.59963696  0.53956661  0.28984975     0.10600
C1939       C  0.58746270  0.65908756  0.26177377     0.63600
H1940       H  0.63871202  0.68957266  0.30058122     0.08000
F1941       F  0.56125428  0.57851928  0.38984908    -0.19500
F1942       F  0.58716935  0.63409260  0.41526722    -0.15700
F1943       F  0.61171355  0.58765414  0.41749657    -0.19200
F1944       F  0.71974445  0.73332729  0.31270224    -0.22600
F1945       F  0.73990501  0.68348023  0.31439302    -0.24100
F1946       F  0.76970592  0.73913030  0.33987525    -0.18000
F1947       F  0.62018342  0.68910289  0.24699824    -0.20500
F1948       F  0.04246563  0.62569276  0.24750420    -0.21700
F1949       F  0.57367532  0.67999989  0.27713583    -0.18900
F1950       F  0.66894795  0.55064464  0.31115210    -0.19000
F1951       F  0.62314373  0.54366467  0.34129049    -0.22800
F1952       F  0.68943297  0.59990859  0.34039184    -0.24400
C1953       C  0.50093810  0.87822005  0.36355183    -0.11200
C1954       C  0.97953366  0.84308165  0.34296383     0.11400
C1955       C  0.97871137  0.80351690  0.34576796    -0.03000
C1956       C  0.97784366  0.78714880  0.37009231    -0.05800
C1957       C  0.97840335  0.80949965  0.39123115    -0.16500
C1958       C  0.49893307  0.86078109  0.38757460     0.02400
C1959       C  0.98336146  0.86449889  0.31829679     0.12300
C1960       C  0.97937567  0.77911424  0.32327757     0.63000
H1961       H  0.97760773  0.75719707  0.37283878     0.12400
C1962       C  0.50353653  0.88674475  0.41039689     0.55100
H1963       H  0.50742098  0.91082014  0.36127139     0.08200
C1964       C  0.94989704  0.86919917  0.30779176    -0.05600
C1965       C  0.95907393  0.89843352  0.28774773    -0.06400
C1966       C  0.99984216  0.92127300  0.27724732    -0.16000
C1967       C  0.54138122  0.92284962  0.28391385    -0.01600
C1968       C  0.53384465  0.89450103  0.30436642    -0.09100
C1969       C  0.90497835  0.84387397  0.31787731     0.65200
H1970       H  0.93475060  0.90501828  0.28070035     0.10600
C1971       C  0.58269312  0.93974678  0.26964524     0.63600
H1972       H  0.55841431  0.88783286  0.31081648     0.08000
F1973       F  0.46722761  0.86563369  0.42483612    -0.19500
F1974       F  0.50938245  0.92670892  0.40395504    -0.15700
F1975       F  0.53805259  0.89216873  0.42440439    -0.19200
F1976       F  0.01763673  0.80187602  0.31085467    -0.22600
F1977       F  0.94683708  0.77261914  0.30710921    -0.24100
F1978       F  0.97441308  0.73965959  0.33015897    -0.18000
F1979       F  0.57418609  0.92461572  0.24573008    -0.20500
F1980       F  0.60448877  0.98355608  0.26886916    -0.21700
F1981       F  0.09711760  0.91044713  0.28245126    -0.18900
F1982       F  0.87718986  0.85282694  0.30460497    -0.19000
F1983       F  0.42558471  0.87775271  0.34698335    -0.22800
F1984       F  0.89081326  0.80075930  0.31620178    -0.24400
C1985       C  0.88193585  0.53069520  0.20240440    -0.11200
C1986       C  0.87128059  0.98911711  0.18728448     0.11400
C1987       C  0.88192300  0.95656076  0.18999190    -0.03000
C1988       C  0.90880669  0.95868288  0.20962487    -0.05800
C1989       C  0.91790473  0.49915086  0.22563288    -0.16500
C1990       C  0.90350618  0.52942644  0.22414649     0.02400
C1991       C  0.85606986  0.99715063  0.16299815     0.12300
C1992       C  0.86888979  0.92230677  0.17071095     0.63000
H1993       H  0.91967303  0.93564494  0.21075764     0.12400
C1994       C  0.91098626  0.56096660  0.24449867     0.55100
H1995       H  0.87299814  0.55504197  0.19974606     0.08200
C1996       C  0.81288752  0.98302840  0.15780648    -0.05600
C1997       C  0.80140619  0.98809374  0.13318013    -0.06400
C1998       C  0.83207884  0.00816033  0.11424241    -0.16000
C1999       C  0.88120051  0.54119279  0.11645179    -0.01600
C2000       C  0.89139453  0.53504491  0.14098550    -0.09100
C2001       C  0.77958514  0.96341004  0.17826505     0.65200
H2002       H  0.76841817  0.97659907  0.12852182     0.10600
C2003       C  0.91654390  0.56603868  0.09761810     0.63600
H2004       H  0.92422801  0.54783799  0.14644205     0.08000
F2005       F  0.88460549  0.53980288  0.26448541    -0.19500
F2006       F  0.90208485  0.59239560  0.23631090    -0.15700
F2007       F  0.95251748  0.58110753  0.25236071    -0.19200
F2008       F  0.89339318  0.93973794  0.14950209    -0.22600
F2009       F  0.82670053  0.90569387  0.16436704    -0.24100
F2010       F  0.87404118  0.88887886  0.17975565    -0.18000
F2011       F  0.91682247  0.60325926  0.09045688    -0.20500
F2012       F  0.91047041  0.54171970  0.07683684    -0.21700
F2013       F  0.95606280  0.57707619  0.10744004    -0.18900
F2014       F  0.73915613  0.94971663  0.16906259    -0.19000
F2015       F  0.78794422  0.99342865  0.19618153    -0.22800
F2016       F  0.78015551  0.92875481  0.18946097    -0.24400
C2017       C  0.50659306  0.83232977  0.15447422    -0.11200
C2018       C  0.99348534  0.86243147  0.15259840     0.11400
C2019       C  0.98199000  0.87861115  0.13131232    -0.03000
C2020       C  0.98618182  0.86555666  0.10765687    -0.05800
C2021       C  0.00274768  0.83828332  0.10473911    -0.16500
C2022       C  0.50931796  0.81620928  0.13138350     0.02400
C2023       C  0.99754491  0.88138303  0.17725562     0.12300
C2024       C  0.96599420  0.91005421  0.13358176     0.63000
H2025       H  0.97756223  0.87742692  0.09108715     0.12400
C2026       C  0.51763504  0.77906844  0.13033143     0.55100
H2027       H  0.51210902  0.81947720  0.17172395     0.08200
C2028       C  0.96485087  0.86516942  0.19535651    -0.05600
C2029       C  0.96912983  0.89083470  0.21587438    -0.06400
C2030       C  0.00612559  0.93038725  0.21909319    -0.16000
C2031       C  0.54769117  0.95135035  0.20268300    -0.01600
C2032       C  0.54202610  0.92399390  0.18337052    -0.09100
C2033       C  0.92643155  0.82110044  0.19299388     0.65200
H2034       H  0.94318582  0.88102072  0.22891959     0.10600
C2035       C  0.58970787  0.99230227  0.20331679     0.63600
H2036       H  0.56724053  0.93292368  0.16983669     0.08000
F2037       F  0.52201418  0.76514141  0.15394053    -0.19500
F2038       F  0.55454475  0.79118936  0.11712919    -0.15700
F2039       F  0.48412404  0.74537744  0.11853928    -0.19200
F2040       F  0.99691841  0.94746105  0.14388383    -0.22600
F2041       F  0.93069440  0.89233900  0.14868717    -0.24100
F2042       F  0.95467255  0.92013703  0.11068246    -0.18000
F2043       F  0.62255989  0.98488357  0.19755956    -0.20500
F2044       F  0.59878951  0.51668370  0.22858898    -0.21700
F2045       F  0.58883137  0.02055968  0.18583754    -0.18900
F2046       F  0.89909598  0.81070243  0.21305166    -0.19000
F2047       F  0.93965636  0.79121165  0.19218870    -0.22800
F2048       F  0.90429578  0.81879480  0.17138161    -0.24400
C2049       C  0.59558887  0.61875458  0.17395196    -0.11200
C2050       C  0.63849706  0.63234595  0.17732739     0.11400
C2051       C  0.65340826  0.62786955  0.20101718    -0.03000
C2052       C  0.62345064  0.60464557  0.21991225    -0.05800
C2053       C  0.57951101  0.58869656  0.21631971    -0.16500
C2054       C  0.56618207  0.59920464  0.19327871     0.02400
C2055       C  0.66623868  0.65230092  0.15537104     0.12300
C2056       C  0.70054983  0.64759450  0.20617477     0.63000
H2057       H  0.63446969  0.59736972  0.23713715     0.12400
C2058       C  0.52239148  0.59299865  0.18814577     0.55100
H2059       H  0.58509507  0.62451934  0.15592819     0.08200
C2060       C  0.66781076  0.62713055  0.13604809    -0.05600
C2061       C  0.68607250  0.64705859  0.11320033    -0.06400
C2062       C  0.70143030  0.69069569  0.10891450    -0.16000
C2063       C  0.70269480  0.71651410  0.12872314    -0.01600
C2064       C  0.68464088  0.69658055  0.15177563    -0.09100
C2065       C  0.64837881  0.57913030  0.13899646     0.65200
H2066       H  0.68592358  0.62805076  0.09785851     0.10600
C2067       C  0.72299264  0.76461551  0.12567476     0.63600
H2068       H  0.68257805  0.71507741  0.16672973     0.08000
F2069       F  0.52549899  0.62862410  0.17576071    -0.19500
F2070       F  0.50079099  0.58808365  0.20983006    -0.15700
F2071       F  0.50400522  0.05368538  0.17309950    -0.19200
F2072       F  0.71986253  0.69137074  0.20278512    -0.22600
F2073       F  0.71865507  0.63190246  0.19005104    -0.24100
F2074       F  0.70842327  0.63908449  0.23040359    -0.18000
F2075       F  0.69803997  0.77494762  0.11061359    -0.20500
F2076       F  0.76279128  0.78114384  0.11504208    -0.21700
F2077       F  0.72781002  0.78383092  0.14842580    -0.18900
F2078       F  0.65603953  0.56147422  0.11844411    -0.19000
F2079       F  0.60493346  0.56043436  0.14182741    -0.22800
F2080       F  0.66558725  0.56954688  0.15962271    -0.24400
C2081       C  0.85495752  0.92296047  0.79354392    -0.11200
C2082       C  0.86161480  0.89204828  0.80597120     0.11400
C2083       C  0.89117435  0.88158939  0.79617316    -0.03000
C2084       C  0.91941740  0.90878259  0.77773763    -0.05800
C2085       C  0.91819081  0.94487011  0.76872318    -0.16500
C2086       C  0.88233030  0.94900115  0.77423195     0.02400
C2087       C  0.84432261  0.87742930  0.83150837     0.12300
C2088       C  0.89412896  0.84325572  0.80599424     0.63000
H2089       H  0.94441715  0.90359112  0.77132576     0.12400
C2090       C  0.87172511  0.97871485  0.75922026     0.55100
H2091       H  0.82970483  0.92805121  0.80002991     0.08200
C2092       C  0.86406144  0.90404637  0.85215223    -0.05600
C2093       C  0.85166352  0.88673511  0.87632830    -0.06400
C2094       C  0.82025504  0.84429122  0.88042604    -0.16000
C2095       C  0.79853083  0.81831411  0.85994687    -0.01600
C2096       C  0.81149862  0.83532982  0.83563086    -0.09100
C2097       C  0.89859616  0.95039590  0.84877340     0.65200
H2098       H  0.86687573  0.90613863  0.89240086     0.10600
C2099       C  0.76235218  0.77268872  0.86276824     0.63600
H2100       H  0.79621400  0.81549696  0.81972131     0.08000
F2101       F  0.83720749  0.97981417  0.76907840    -0.19500
F2102       F  0.86172009  0.96436161  0.73510712    -0.15700
F2103       F  0.90545743  0.01971640  0.75850252    -0.19200
F2104       F  0.85607654  0.80644602  0.80189483    -0.22600
F2105       F  0.90288127  0.84673140  0.83129774    -0.24100
F2106       F  0.92555432  0.83931713  0.79408189    -0.18000
F2107       F  0.73001646  0.76622998  0.84638044    -0.20500
F2108       F  0.74522968  0.76282453  0.88654921    -0.21700
F2109       F  0.77695595  0.74505557  0.85716656    -0.18900
F2110       F  0.91499915  0.96949813  0.87137410    -0.19000
F2111       F  0.88217177  0.97324169  0.83664053    -0.22800
F2112       F  0.93162998  0.95306557  0.83490726    -0.24400
C2113       C  0.53949705  0.63472667  0.80912822    -0.11200
C2114       C  0.50348936  0.62027044  0.82399986     0.11400
C2115       C  0.98381742  0.57026223  0.82023835    -0.03000
C2116       C  0.98519906  0.54533083  0.80101036    -0.05800
C2117       C  0.50474116  0.57004794  0.78515730    -0.16500
C2118       C  0.54168560  0.60922479  0.79064636     0.02400
C2119       C  0.50766210  0.64335080  0.84697125     0.12300
C2120       C  0.94627154  0.55185268  0.83809681     0.63000
H2121       H  0.95964149  0.51288320  0.79987207     0.12400
C2122       C  0.58484956  0.62370777  0.77954905     0.55100
H2123       H  0.56739980  0.66477622  0.81352899     0.08200
C2124       C  0.52475017  0.63497632  0.86891844    -0.05600
C2125       C  0.52582568  0.65604240  0.89066845    -0.06400
C2126       C  0.51098756  0.68512265  0.89078743    -0.16000
C2127       C  0.99666875  0.68172295  0.86550243    -0.01600
C2128       C  0.99824275  0.66037053  0.84426042    -0.09100
C2129       C  0.54205007  0.60424561  0.86928505     0.65200
H2130       H  0.53775880  0.64958789  0.90792418     0.10600
C2131       C  0.97054332  0.70407173  0.86474438     0.63600
H2132       H  0.98034421  0.65926070  0.82768570     0.08000
F2133       F  0.61625032  0.64307213  0.79737498    -0.19500
F2134       F  0.08424810  0.65362574  0.75132090    -0.15700
F2135       F  0.58811156  0.58996381  0.77088476    -0.19200
F2136       F  0.92574925  0.57541601  0.83602483    -0.22600
F2137       F  0.43359427  0.56282691  0.85905190    -0.24100
F2138       F  0.91701263  0.50991839  0.83299056    -0.18000
F2139       F  0.95720865  0.70665451  0.84075349    -0.20500
F2140       F  0.99445301  0.74517363  0.87327461    -0.21700
F2141       F  0.93490505  0.68175475  0.87957241    -0.18900
F2142       F  0.55530698  0.59948629  0.89290832    -0.19000
F2143       F  0.57648885  0.61958931  0.85339566    -0.22800
F2144       F  0.51124942  0.56441910  0.86166464    -0.24400
C2145       C  0.58560077  0.97545885  0.81932843    -0.11200
C2146       C  0.62092162  0.50302068  0.81332648     0.11400
C2147       C  0.63159278  0.52412145  0.78980114    -0.03000
C2148       C  0.59871606  0.51496344  0.77244237    -0.05800
C2149       C  0.55597332  0.48454480  0.77775156    -0.16500
C2150       C  0.55273872  0.96329239  0.80180050     0.02400
C2151       C  0.65063592  0.51419753  0.83464383     0.12300
C2152       C  0.67734635  0.55565130  0.78321310     0.63000
H2153       H  0.60613330  0.53310345  0.75503786     0.12400
C2154       C  0.51141950  0.92284239  0.80805407     0.55100
H2155       H  0.57914298  0.96028323  0.83772009     0.08200
C2156       C  0.64966275  0.53950761  0.85409100    -0.05600
C2157       C  0.67053482  0.54092524  0.87658246    -0.06400
C2158       C  0.69003788  0.51610003  0.88071688    -0.16000
C2159       C  0.69882477  0.99621239  0.86196770    -0.01600
C2160       C  0.67888955  0.99553008  0.83904001    -0.09100
C2161       C  0.62442982  0.56278633  0.85173372     0.65200
H2162       H  0.66937881  0.55940759  0.89183856     0.10600
C2163       C  0.72212871  0.97118570  0.86505856     0.63600
H2164       H  0.67745910  0.97472319  0.82441642     0.08000
F2165       F  0.47980562  0.93161146  0.81373264    -0.19500
F2166       F  0.51548902  0.90088557  0.82855378    -0.15700
F2167       F  0.00510947  0.90246367  0.78656024    -0.19200
F2168       F  0.70066477  0.53480885  0.78387465    -0.22600
F2169       F  0.69438129  0.58821177  0.80013384    -0.24100
F2170       F  0.68103052  0.57355943  0.75955227    -0.18000
F2171       F  0.70090451  0.93750437  0.88182520    -0.20500
F2172       F  0.76279484  0.99766624  0.87369554    -0.21700
F2173       F  0.72531703  0.95470731  0.84265799    -0.18900
F2174       F  0.62993057  0.58741933  0.87230243    -0.19000
F2175       F  0.58163666  0.53371387  0.84970230    -0.22800
F2176       F  0.63731172  0.58941576  0.83082462    -0.24400
C2177       C  0.89400275  0.86431611  0.63534371    -0.11200
C2178       C  0.86995422  0.87313835  0.65194282     0.11400
C2179       C  0.82611036  0.85672700  0.64759375    -0.03000
C2180       C  0.80780671  0.83185225  0.62648383    -0.05800
C2181       C  0.83160577  0.82255832  0.60979703    -0.16500
C2182       C  0.87556303  0.83864109  0.61444192     0.02400
C2183       C  0.89210569  0.90139407  0.67309331     0.12300
C2184       C  0.79856478  0.86481424  0.66533523     0.63000
H2185       H  0.77431374  0.81923253  0.62285982     0.12400
C2186       C  0.90337658  0.82993072  0.59735501     0.55100
H2187       H  0.92764111  0.87799166  0.63895512     0.08200
C2188       C  0.90422131  0.88688050  0.69474842    -0.05600
C2189       C  0.92571014  0.91595493  0.71371715    -0.06400
C2190       C  0.93395594  0.95830524  0.71233508    -0.16000
C2191       C  0.92056123  0.97221053  0.69078435    -0.01600
C2192       C  0.90163412  0.94398173  0.67109225    -0.09100
C2193       C  0.89537160  0.84121962  0.69766750     0.65200
H2194       H  0.93773365  0.90599211  0.72937334     0.10600
C2195       C  0.92401238  0.01558187  0.68779941     0.63600
H2196       H  0.89277304  0.95489605  0.65419298     0.08000
F2197       F  0.89085035  0.78697800  0.59852814    -0.19500
F2198       F  0.94571596  0.85230253  0.60416170    -0.15700
F2199       F  0.90018573  0.84195830  0.57304080    -0.19200
F2200       F  0.81308672  0.90802148  0.66679914    -0.22600
F2201       F  0.79955420  0.84863216  0.68885954    -0.24100
F2202       F  0.75670161  0.84556569  0.65756104    -0.18000
F2203       F  0.95538598  0.04014516  0.67061969    -0.20500
F2204       F  0.93275977  0.51725083  0.71194363    -0.21700
F2205       F  0.88576855  0.01092665  0.67932959    -0.18900
F2206       F  0.90731161  0.83327725  0.72097595    -0.19000
F2207       F  0.91769879  0.83329499  0.67989779    -0.22800
F2208       F  0.85249613  0.81321593  0.69477474    -0.24400
C2209       C  0.53700837  0.64095695  0.69386297    -0.11200
C2210       C  0.50013558  0.64407939  0.69458643     0.11400
C2211       C  0.99880543  0.62068352  0.71361780    -0.03000
C2212       C  0.00160653  0.59111843  0.72988665    -0.05800
C2213       C  0.51150120  0.58883570  0.72813527    -0.16500
C2214       C  0.54392575  0.61465873  0.71066515     0.02400
C2215       C  0.48911828  0.65978482  0.67132144     0.12300
C2216       C  0.97068074  0.63912345  0.72011202     0.63000
H2217       H  0.98106261  0.57928399  0.74602767     0.12400
C2218       C  0.58700782  0.61783672  0.70908751     0.55100
H2219       H  0.55978975  0.65746341  0.67899204     0.08200
C2220       C  0.51773548  0.69918937  0.65957818    -0.05600
C2221       C  0.51335579  0.70478057  0.63391361    -0.06400
C2222       C  0.48015011  0.67324191  0.61988901    -0.16000
C2223       C  0.96368903  0.62941973  0.63271265    -0.01600
C2224       C  0.97303516  0.62123979  0.65700351    -0.09100
C2225       C  0.55394175  0.73565027  0.67312677     0.65200
H2226       H  0.53670415  0.73406326  0.62465096     0.10600
C2227       C  0.92249725  0.59631959  0.62085851     0.63600
H2228       H  0.95231077  0.59097131  0.66627024     0.08000
F2229       F  0.61796777  0.65861081  0.71512816    -0.19500
F2230       F  0.59454080  0.61123549  0.68492183    -0.15700
F2231       F  0.59103254  0.58930051  0.72481931    -0.19200
F2232       F  0.93732542  0.62575595  0.70348686    -0.22600
F2233       F  0.99433017  0.68316125  0.71907048    -0.24100
F2234       F  0.95390085  0.62668328  0.74392918    -0.18000
F2235       F  0.89919366  0.56160560  0.63671346    -0.20500
F2236       F  0.93107307  0.58127015  0.59949478    -0.21700
F2237       F  0.89740731  0.61429833  0.61514071    -0.18900
F2238       F  0.55245226  0.77274786  0.66838020    -0.19000
F2239       F  0.59214564  0.74120544  0.66447404    -0.22800
F2240       F  0.55202248  0.72887500  0.69872814    -0.24400
C2241       C  0.60426481  0.94322223  0.64455338    -0.11200
C2242       C  0.62257429  0.46227483  0.66110233     0.11400
C2243       C  0.66679031  0.48474099  0.65730993    -0.03000
C2244       C  0.68239215  0.48358376  0.63365995    -0.05800
C2245       C  0.65488747  0.45904932  0.61457212    -0.16500
C2246       C  0.61711799  0.94167631  0.62028585     0.02400
C2247       C  0.60244614  0.47274377  0.68129930     0.12300
C2248       C  0.69676498  0.50906362  0.67833941     0.63000
H2249       H  0.71606411  0.50230440  0.62977460     0.12400
C2250       C  0.58368490  0.91376241  0.60144111     0.55100
H2251       H  0.57103087  0.92491821  0.64965990     0.08200
C2252       C  0.59150822  0.50484257  0.67752416    -0.05600
C2253       C  0.56902347  0.51126526  0.69638940    -0.06400
C2254       C  0.55293801  0.48397708  0.71765365    -0.16000
C2255       C  0.56763364  0.95332040  0.71956231    -0.01600
C2256       C  0.59700363  0.95265142  0.70290963    -0.09100
C2257       C  0.60170167  0.53081167  0.65305058     0.65200
H2258       H  0.56222068  0.53645093  0.69363499     0.10600
C2259       C  0.54114580  0.91294175  0.73490459     0.63600
H2260       H  0.60352712  0.92635609  0.70390854     0.08000
F2261       F  0.54290518  0.89776749  0.61056978    -0.19500
F2262       F  0.58887218  0.87946991  0.59584569    -0.15700
F2263       F  0.58709661  0.93716548  0.57984072    -0.19200
F2264       F  0.68996350  0.48127184  0.69829960    -0.22600
F2265       F  0.68968477  0.54122749  0.68605016    -0.24100
F2266       F  0.73880269  0.52715976  0.67114470    -0.18000
F2267       F  0.53211212  0.87748151  0.72114122    -0.20500
F2268       F  0.50266265  0.90876837  0.74144973    -0.21700
F2269       F  0.56342372  0.91281333  0.75598191    -0.18900
F2270       F  0.58567876  0.55841088  0.65242424    -0.19000
F2271       F  0.58385712  0.50401159  0.63315538    -0.22800
F2272       F  0.64509324  0.55453332  0.64962625    -0.24400
loop_ 
_geom_bond_atom_site_label_1 
_geom_bond_atom_site_label_2 
_geom_bond_distance 
_geom_bond_site_symmetry_2 
_ccdc_geom_bond_type 
C1            H2   1.103       .  S
C1            C7   1.553   1_645  S
C1            C6   1.535   1_655  S
C1         C1709   1.555   1_545  S
C3            H4   1.106       .  S
C3          C577   1.562       .  S
C3         C1144   1.542   1_455  S
C3          C578   1.551       .  S
C5         C1705   1.549       .  S
C5            C8   1.371       .  D
C5          C381   1.495       .  S
C6            C9   1.371       .  D
C6          C413   1.497       .  S
C7           C10   1.395   1_565  D
C7          C445   1.516       .  S
C8         C1139   1.534       .  S
C8          C486   1.491       .  S
C9          C571   1.552       .  S
C9          C509   1.497       .  S
C10         C571   1.555       .  S
C10         C550   1.513   1_545  S
Zn11         O15   1.941       .  S
Zn11         O16   1.989       .  S
Zn11         O20   2.004   1_556  S
Zn11         O27   2.044       .  S
Zn12         O15   1.929       .  S
Zn12         O17   2.012   1_556  S
Zn12         O19   2.022       .  S
Zn12         O23   2.002       .  S
Zn13         O15   1.951   1_554  S
Zn13         O18   2.023       .  S
Zn13         O21   2.019       .  S
Zn13         O24   2.002       .  S
Zn14         O15   1.943       .  S
Zn14         O22   2.004   1_556  S
Zn14         O25   2.050       .  S
Zn14         O26   2.004       .  S
O16          C28   1.272       .  A
O17          C29   1.273       .  A
O18          C30   1.273       .  A
O19          C28   1.276       .  A
O20          C30   1.271       .  A
O21          C29   1.272       .  A
O22          C31   1.273       .  A
O23          C32   1.272       .  A
O24          C31   1.274       .  A
O25          C32   1.277       .  A
O26          C33   1.272       .  A
O27          C33   1.276       .  A
C28          C83   1.453       .  S
C29          C89   1.464       .  S
C30          C77   1.464       .  S
C31          C65   1.456       .  S
C32          C73   1.465       .  S
C33          C38   1.465       .  S
C34         C390   1.464       .  S
C34          N35   1.358       .  A
C34          N39   1.359       .  A
N35          C36   1.356       .  A
C36          C57   1.469       .  S
C36          N37   1.360       .  A
N37          C38   1.360       .  A
C38          N39   1.356       .  A
Zn40         O44   1.943       .  S
Zn40         O45   2.017   1_554  S
Zn40         O49   2.002       .  S
Zn40         O56   2.035       .  S
Zn41         O44   1.956   1_556  S
Zn41         O46   2.023       .  S
Zn41         O48   2.026       .  S
Zn41         O52   2.012       .  S
Zn42         O44   1.935       .  S
Zn42         O47   2.034       .  S
Zn42         O50   2.013   1_554  S
Zn42         O53   2.009       .  S
Zn43         O44   1.948       .  S
Zn43         O51   2.057       .  S
Zn43         O54   2.025   1_554  S
Zn43         O55   2.001       .  S
O45          C57   1.273       .  A
O46          C58   1.273       .  A
O47          C59   1.276       .  A
O48          C57   1.274       .  A
O49          C59   1.273       .  A
O50          C58   1.273       .  A
O51          C60   1.279       .  A
O52          C61   1.273       .  A
O53          C60   1.273       .  A
O54          C61   1.275       .  A
O55          C62   1.272       .  A
O56          C62   1.276       .  A
C58          C85   1.465       .  S
C59          C67   1.459       .  S
C60          C79   1.468       .  S
C61          C71   1.464       .  S
C62          C91   1.460       .  S
C63         C358   1.468       .  S
C63          N64   1.356       .  A
C63          N68   1.359       .  A
N64          C65   1.351       .  A
C65          N66   1.357       .  A
N66          C67   1.358       .  A
C67          N68   1.355       .  A
C69         C454   1.479       .  S
C69          N74   1.362       .  A
C69         N638   1.365   1_545  A
N70          C71   1.355       .  A
N70         C637   1.358       .  A
C71         N640   1.357       .  A
N72          C73   1.356       .  A
N72         C639   1.357   1_545  A
C73          N74   1.356       .  A
C75         C317   1.470       .  S
C75          N76   1.358       .  A
C75        N1216   1.364       .  A
N76          C77   1.353       .  A
C77          N78   1.357       .  A
N78        C1215   1.358       .  A
C79          N80   1.362       .  A
C79        N1214   1.357       .  A
N80        C1211   1.366       .  A
C81         C422   1.463       .  S
C81          N86   1.361       .  A
C81        N1218   1.358   1_455  A
N82          C83   1.350       .  A
N82        C1217   1.355       .  A
C83        N1220   1.356       .  A
N84          C85   1.357       .  A
N84        C1219   1.356   1_455  A
C85          N86   1.357       .  A
C87         C294   1.467       .  S
C87          N92   1.358       .  A
C87         N656   1.360       .  A
N88          C89   1.358       .  A
N88         C655   1.362       .  A
C89         N658   1.354       .  A
N90          C91   1.357       .  A
N90         C657   1.358       .  A
C91          N92   1.353       .  A
Zn93         O97   1.942       .  S
Zn93         O98   2.047       .  S
Zn93        O102   2.013       .  S
Zn93        O109   2.000       .  S
Zn94         O97   1.937       .  S
Zn94         O99   2.010       .  S
Zn94        O101   2.008       .  S
Zn94        O105   2.042       .  S
Zn95         O97   1.968       .  S
Zn95        O100   2.043       .  S
Zn95        O103   2.042       .  S
Zn95        O106   2.026       .  S
Zn96         O97   1.952       .  S
Zn96        O104   2.002       .  S
Zn96        O107   2.005       .  S
Zn96        O108   2.043       .  S
O98         C110   1.277       .  A
O99         C111   1.274       .  A
O100        C112   1.276       .  A
O101        C110   1.273       .  A
O102        C112   1.274       .  A
O103        C111   1.275       .  A
O104        C113   1.272       .  A
O105        C114   1.276       .  A
O106        C113   1.276       .  A
O107        C114   1.272       .  A
O108        C115   1.276       .  A
O109        C115   1.271       .  A
C110        C155   1.464       .  S
C111        C161   1.469       .  S
C112        C171   1.470       .  S
C113        C165   1.463       .  S
C114        C120   1.465       .  S
C115        C149   1.463       .  S
C116        C477   1.476       .  S
C116        N117   1.361       .  A
C116        N121   1.360       .  A
N117        C118   1.354       .  A
C118        C142   1.467       .  S
C118        N119   1.359       .  A
N119        C120   1.359       .  A
C120        N121   1.355       .  A
Zn122       O126   1.937       .  S
Zn122       O127   2.016       .  S
Zn122       O131   2.005       .  S
Zn122       O138   2.034       .  S
Zn123       O126   1.951       .  S
Zn123       O128   2.007       .  S
Zn123       O130   2.048       .  S
Zn123       O134   2.000       .  S
Zn124       O126   1.961       .  S
Zn124       O129   2.044       .  S
Zn124       O132   2.027       .  S
Zn124       O135   2.044       .  S
Zn125       O126   1.944       .  S
Zn125       O133   2.000       .  S
Zn125       O136   2.030       .  S
Zn125       O137   1.986       .  S
O127        C139   1.274       .  A
O128        C140   1.274       .  A
O129        C141   1.277       .  A
O130        C139   1.277       .  A
O131        C141   1.273       .  A
O132        C140   1.276       .  A
O133        C142   1.271       .  A
O134        C143   1.271       .  A
O135        C142   1.276       .  A
O136        C143   1.274       .  A
O137        C144   1.270       .  A
O138        C144   1.275       .  A
C139        C159   1.468       .  S
C140        C147   1.464       .  S
C141        C153   1.472       .  S
C143        C173   1.460       .  S
C144        C167   1.457       .  S
C145        C541   1.471       .  S
C145        N150   1.362   1_565  A
C145        N714   1.355       .  A
N146        C147   1.355       .  A
N146        C713   1.361       .  A
C147        N716   1.358       .  A
N148        C149   1.357   1_565  A
N148        C715   1.356       .  A
C149        N150   1.357       .  A
C151        C518   1.494       .  S
C151        N152   1.365   1_655  A
C151       N1292   1.362       .  A
N152        C153   1.359       .  A
C153        N154   1.357   1_455  A
N154       C1291   1.355       .  A
C155        N156   1.357       .  A
C155       N1290   1.356       .  A
N156       C1287   1.361       .  A
C157        C253   1.480       .  S
C157        N162   1.365       .  A
C157       N1294   1.364       .  A
N158        C159   1.357       .  A
N158       C1293   1.364   1_455  A
C159       N1296   1.354   1_455  A
N160        C161   1.356       .  A
N160       C1295   1.354       .  A
C161        N162   1.361       .  A
C163        C221   1.465       .  S
C163        N164   1.357       .  A
C163        N168   1.356       .  A
N164        C165   1.353       .  A
C165        N166   1.359       .  A
N166        C167   1.359       .  A
C167        N168   1.352       .  A
C169        C189   1.473       .  S
C169        N174   1.359       .  A
C169        N738   1.362       .  A
N170        C171   1.360       .  A
N170        C737   1.364   1_545  A
C171        N740   1.357   1_545  A
N172        C173   1.356       .  A
N172        C739   1.358       .  A
C173        N174   1.353       .  A
C175        H176   1.105   1_455  S
C175        C181   1.542   1_565  S
C175        C748   1.541       .  S
C175       C1315   1.554   1_455  S
C177        H178   1.111       .  S
C177        C184   1.553   1_565  S
C177        C751   1.543       .  S
C177       C1886   1.537   1_455  S
C179       C1311   1.559       .  S
C179        C750   1.381       .  D
C179        C285   1.504       .  S
C180        C743   1.543       .  S
C180        C183   1.371   1_655  D
C180       C1462   1.495       .  S
C181        C184   1.383       .  D
C181        C349   1.509       .  S
C182       C1881   1.540       .  S
C182        C747   1.377       .  D
C182        C198   1.506       .  S
C183        C745   1.540       .  S
C183       C1398   1.489   1_455  S
C184        C230   1.498       .  S
C185        C190   1.410       .  A
C185        C754   1.405   1_545  A
C185        H195   1.083       .  S
C186        C191   1.483       .  S
C186        C187   1.417       .  A
C186        C753   1.405       .  A
C187        C188   1.400       .  A
C187        C192   1.516       .  S
C188        C189   1.399       .  A
C188        H193   1.083       .  S
C189        C758   1.415       .  A
C190        C757   1.416   1_545  A
C190        C194   1.518       .  S
C191        C196   1.411       .  A
C191        C768   1.394       .  A
C192        F208   1.382       .  S
C192        F209   1.378       .  S
C192        F210   1.385       .  S
C194        F205   1.384       .  S
C194        F206   1.383       .  S
C194        F207   1.384       .  S
C196        C197   1.412       .  A
C196        C201   1.517       .  S
C197        C198   1.414       .  A
C197        H202   1.081       .  S
C198        C767   1.428       .  A
C199        C200   1.399       .  A
C199        C766   1.429       .  A
C199        C203   1.517       .  S
C200        C759   1.393   1_545  A
C200        H204   1.085       .  S
C201        F214   1.384       .  S
C201        F215   1.383       .  S
C201        F216   1.381       .  S
C203        F211   1.386       .  S
C203        F213   1.381       .  S
C203       F1348   1.369       .  S
F212       C1339   1.362   1_455  S
C217        C218   1.401       .  A
C217        C222   1.399       .  A
C217        H227   1.083       .  S
C218        C223   1.468       .  S
C218        C219   1.409       .  A
C219        C220   1.402       .  A
C219        C224   1.515       .  S
C220        C221   1.405       .  A
C220        H225   1.083       .  S
C221        C222   1.416       .  A
C222        C226   1.522       .  S
C223        C228   1.410       .  A
C223        C232   1.398       .  A
C224        F240   1.383       .  S
C224        F241   1.383       .  S
C224        F242   1.385       .  S
C226        F237   1.385       .  S
C226        F238   1.383       .  S
C226        F239   1.383       .  S
C228        C229   1.393       .  A
C228        C233   1.523       .  S
C229        C230   1.405       .  A
C229        H234   1.076       .  S
C230        C231   1.429       .  A
C231        C232   1.406       .  A
C231        C235   1.520       .  S
C232        H236   1.085       .  S
C233        F246   1.383       .  S
C233        F247   1.384       .  S
C233        F248   1.381       .  S
C235        F243   1.382       .  S
C235        F245   1.385       .  S
C235       F1380   1.372       .  S
F244       C1371   1.374       .  S
C249        C254   1.406       .  A
C249       C1386   1.403       .  A
C249        H259   1.084   1_655  S
C250        C255   1.489       .  S
C250        C251   1.420       .  A
C250       C1385   1.405       .  A
C251        C252   1.409       .  A
C251        C256   1.518       .  S
C252        C253   1.402       .  A
C252        H257   1.085       .  S
C253       C1390   1.415       .  A
C254       C1389   1.415       .  A
C254        C258   1.518   1_655  S
C255        C260   1.411       .  A
C255       C1400   1.401       .  A
C256        F272   1.383       .  S
C256        F273   1.381       .  S
C256        F274   1.384       .  S
C258        F269   1.383   1_455  S
C258        F270   1.385       .  S
C258        F271   1.382       .  S
C260        C261   1.405       .  A
C260        C265   1.513       .  S
C261        C262   1.403       .  A
C261        H266   1.081       .  S
C262       C1319   1.499       .  S
C262       C1399   1.425       .  A
C263        C264   1.412       .  A
C263       C1398   1.419   1_455  A
C263        C267   1.518       .  S
C264       C1391   1.404   1_455  A
C264        H268   1.083       .  S
C265        F278   1.384       .  S
C265        F280   1.381       .  S
C265       F1415   1.381       .  S
C267        F275   1.380       .  S
C267        F276   1.377       .  S
C267       F1413   1.384       .  S
F277       C1403   1.385       .  S
F279       C1401   1.381       .  S
C281        C286   1.412       .  A
C281        C850   1.400   1_545  A
C281        H291   1.082       .  S
C282        C287   1.476       .  S
C282        C283   1.412       .  A
C282        C849   1.397       .  A
C283        C284   1.402       .  A
C283        C288   1.520       .  S
C284        C853   1.404       .  A
C284        H289   1.081       .  S
C285        C286   1.427       .  A
C285        C852   1.406   1_545  A
C286        C290   1.520       .  S
C287        C292   1.413       .  A
C287        C864   1.402       .  A
C288        F304   1.382       .  S
C288        F305   1.381       .  S
C288        F306   1.384       .  S
C290        F301   1.380       .  S
C290        F302   1.385       .  S
C290        F303   1.374       .  S
C292        C293   1.406       .  A
C292        C297   1.518       .  S
C293        C294   1.403       .  A
C293        H298   1.083       .  S
C294        C863   1.414       .  A
C295        C296   1.404       .  A
C295        C862   1.413       .  A
C295        C299   1.519       .  S
C296        C855   1.403       .  A
C296        H300   1.083       .  S
C297        F310   1.384       .  S
C297        F311   1.382       .  S
C297        F312   1.381       .  S
C299        F307   1.382       .  S
C299        F308   1.384       .  S
C299        F309   1.384       .  S
C313        C318   1.409       .  A
C313       C1450   1.405   1_455  A
C313        H323   1.083       .  S
C314        C319   1.483       .  S
C314        C315   1.419       .  A
C314       C1449   1.405       .  A
C315        C316   1.402       .  A
C315        C320   1.520       .  S
C316        C317   1.398       .  A
C316        H321   1.084       .  S
C317       C1454   1.413       .  A
C318       C1453   1.416   1_455  A
C318        C322   1.517       .  S
C319        C324   1.416       .  A
C319       C1464   1.394       .  A
C320        F336   1.382       .  S
C320        F337   1.379       .  S
C320        F338   1.385       .  S
C322        F333   1.385       .  S
C322        F334   1.382       .  S
C322        F335   1.383       .  S
C324        C325   1.413       .  A
C324        C329   1.516       .  S
C325        C326   1.404       .  A
C325        H330   1.083       .  S
C326       C1316   1.485       .  S
C326       C1463   1.419       .  A
C327        C328   1.395       .  A
C327       C1462   1.423   1_455  A
C327        C331   1.511       .  S
C328       C1455   1.392   1_455  A
C328        H332   1.084       .  S
C329        F342   1.385       .  S
C329        F343   1.382       .  S
C329        F344   1.382       .  S
C331        F339   1.385       .  S
C331        F341   1.375       .  S
C331        F908   1.378       .  S
F340        C899   1.372       .  S
C345        C346   1.392       .  A
C345        C350   1.396       .  A
C345        H355   1.085       .  S
C346        C351   1.474       .  S
C346        C347   1.409       .  A
C347        C348   1.409       .  A
C347        C352   1.517       .  S
C348        C349   1.413       .  A
C348        H353   1.079       .  S
C349        C350   1.430       .  A
C350        C354   1.516       .  S
C351        C356   1.416       .  A
C351        C360   1.403       .  A
C352        F368   1.383       .  S
C352        F369   1.382       .  S
C352        F370   1.384       .  S
C354        F365   1.385       .  S
C354        F366   1.368   1_455  S
C354        F935   1.382   1_455  S
C356        C357   1.398       .  A
C356        C361   1.520       .  S
C357        C358   1.400       .  A
C357        H362   1.083       .  S
C358        C359   1.415       .  A
C359        C360   1.405       .  A
C359        C363   1.518       .  S
C360        H364   1.083       .  S
C361        F374   1.385       .  S
C361        F375   1.382       .  S
C361        F376   1.380       .  S
C363        F371   1.382       .  S
C363        F372   1.384       .  S
C363        F373   1.384       .  S
F367        C922   1.382   1_655  S
C377        C378   1.402       .  A
C377        C382   1.409       .  A
C377        H387   1.083       .  S
C378        C383   1.480       .  S
C378        C379   1.413       .  A
C379        C380   1.405       .  A
C379        C384   1.520       .  S
C380        C381   1.399       .  A
C380        H385   1.073       .  S
C381        C382   1.415       .  A
C382        C386   1.512       .  S
C383        C388   1.422       .  A
C383        C392   1.403       .  A
C384        F400   1.382       .  S
C384        F401   1.383       .  S
C384        F402   1.384       .  S
C386        F397   1.384       .  S
C386        F398   1.382       .  S
C386        F399   1.375       .  S
C388        C389   1.401       .  A
C388        C393   1.521       .  S
C389        C390   1.397       .  A
C389        H394   1.085       .  S
C390        C391   1.417       .  A
C391        C392   1.406       .  A
C391        C395   1.520       .  S
C392        H396   1.085       .  S
C393        F406   1.383       .  S
C393        F407   1.378       .  S
C393        F408   1.383       .  S
C395        F403   1.383       .  S
C395        F404   1.382       .  S
C395        F405   1.384       .  S
C409        C410   1.395       .  A
C409        C414   1.404       .  A
C409        H419   1.084       .  S
C410        C415   1.476       .  S
C410       C1547   1.409   1_455  A
C411        C412   1.401       .  A
C411       C1546   1.408       .  A
C411        C416   1.518       .  S
C412       C1549   1.404       .  A
C412        H417   1.075       .  S
C413        C414   1.424       .  A
C413       C1548   1.405   1_455  A
C414        C418   1.510       .  S
C415        C420   1.417       .  A
C415       C1560   1.403       .  A
C416        F432   1.382       .  S
C416        F434   1.384       .  S
C416       F1569   1.381       .  S
C418        F429   1.385       .  S
C418        F431   1.373       .  S
C418       F1566   1.377       .  S
C420        C421   1.400       .  A
C420        C425   1.521       .  S
C421        C422   1.397       .  A
C421        H426   1.084       .  S
C422       C1559   1.413       .  A
C423        C424   1.402       .  A
C423       C1558   1.411       .  A
C423        C427   1.517       .  S
C424       C1551   1.402       .  A
C424        H428   1.083       .  S
C425        F438   1.384       .  S
C425        F439   1.380       .  S
C425        F440   1.382   1_455  S
C427        F435   1.384       .  S
C427        F436   1.384       .  S
C427        F437   1.383       .  S
F430       C1554   1.373       .  S
F433       C1552   1.382       .  S
C441        C446   1.404       .  A
C441       C1010   1.402       .  A
C441        H451   1.085       .  S
C442        C447   1.483       .  S
C442        C443   1.409       .  A
C442       C1009   1.390   1_545  A
C443        C444   1.411       .  A
C443        C448   1.516       .  S
C444        C445   1.413   1_545  A
C444        H449   1.081       .  S
C445       C1014   1.437       .  A
C446       C1013   1.414       .  A
C446        C450   1.508       .  S
C447        C452   1.418       .  A
C447       C1024   1.404       .  A
C448        F464   1.382       .  S
C448        F465   1.382       .  S
C448        F466   1.385       .  S
C450        F461   1.381   1_455  S
C450        F462   1.384       .  S
C450       F1599   1.379       .  S
C452        C453   1.403       .  A
C452        C457   1.521       .  S
C453        C454   1.400       .  A
C453        H458   1.083       .  S
C454       C1023   1.417       .  A
C455        C456   1.405       .  A
C455       C1022   1.413       .  A
C455        C459   1.517       .  S
C456       C1015   1.402       .  A
C456        H460   1.083       .  S
C457        F470   1.385       .  S
C457        F471   1.382       .  S
C457        F472   1.381       .  S
C459        F467   1.383       .  S
C459        F468   1.383       .  S
C459        F469   1.384       .  S
F463       C1586   1.369       .  S
C473        C474   1.400       .  A
C473        C478   1.403       .  A
C473        H483   1.083       .  S
C474        C479   1.475       .  S
C474        C475   1.412       .  A
C475        C476   1.404       .  A
C475        C480   1.520       .  S
C476        C477   1.406       .  A
C476        H481   1.083       .  S
C477        C478   1.420       .  A
C478        C482   1.521       .  S
C479        C484   1.410       .  A
C479        C488   1.399       .  A
C480        F496   1.382       .  S
C480        F497   1.382       .  S
C480        F498   1.384       .  S
C482        F493   1.383       .  S
C482        F494   1.385       .  S
C482        F495   1.384       .  S
C484        C485   1.401       .  A
C484        C489   1.520       .  S
C485        C486   1.405       .  A
C485        H490   1.074       .  S
C486        C487   1.423       .  A
C487        C488   1.405       .  A
C487        C491   1.520       .  S
C488        H492   1.084       .  S
C489        F502   1.385       .  S
C489        F503   1.382       .  S
C489        F504   1.382       .  S
C491        F499   1.379       .  S
C491        F501   1.384       .  S
C491       F1068   1.376       .  S
F500       C1059   1.374       .  S
C505        C506   1.400       .  A
C505        C510   1.402       .  A
C505        H515   1.084       .  S
C506        C511   1.488   1_455  S
C506       C1643   1.414   1_455  A
C507        C508   1.405       .  A
C507       C1642   1.415       .  A
C507        C512   1.514       .  S
C508       C1645   1.405       .  A
C508        H513   1.083       .  S
C509        C510   1.423       .  A
C509       C1644   1.406   1_455  A
C510        C514   1.514       .  S
C511        C516   1.414   1_655  A
C511       C1656   1.402       .  A
C512        F528   1.383       .  S
C512        F529   1.383       .  S
C512        F530   1.384       .  S
C514        F525   1.383       .  S
C514        F526   1.379       .  S
C514        F527   1.378       .  S
C516        C517   1.405       .  A
C516        C521   1.516       .  S
C517        C518   1.409   1_455  A
C517        H522   1.084       .  S
C518       C1655   1.424       .  A
C519        C520   1.407       .  A
C519       C1654   1.424       .  A
C519        C523   1.521       .  S
C520       C1647   1.404       .  A
C520        H524   1.082       .  S
C521        F534   1.383       .  S
C521        F535   1.383       .  S
C521        F536   1.383       .  S
C523        F531   1.385       .  S
C523        F532   1.383       .  S
C523        F533   1.383       .  S
C537        C542   1.401       .  A
C537       C1106   1.398       .  A
C537        H547   1.084       .  S
C538        C543   1.468       .  S
C538        C539   1.408   1_565  A
C538       C1105   1.398       .  A
C539        C540   1.403   1_545  A
C539        C544   1.518       .  S
C540        C541   1.406       .  A
C540        H545   1.083   1_565  S
C541       C1110   1.422       .  A
C542       C1109   1.424       .  A
C542        C546   1.521       .  S
C543        C548   1.411   1_565  A
C543       C1120   1.394       .  A
C544        F560   1.383       .  S
C544        F561   1.382       .  S
C544        F562   1.384       .  S
C546        F557   1.385       .  S
C546        F558   1.383       .  S
C546        F559   1.383       .  S
C548        C549   1.397       .  A
C548        C553   1.528       .  S
C549        C550   1.408   1_545  A
C549        H554   1.071       .  S
C550       C1119   1.427       .  A
C551        C552   1.397       .  A
C551       C1118   1.419       .  A
C551        C555   1.507   1_455  S
C552       C1111   1.397       .  A
C552        H556   1.084       .  S
C553        F566   1.382       .  S
C553        F567   1.382       .  S
C553        F568   1.381       .  S
C555        F563   1.381       .  S
C555        F564   1.376       .  S
C555        F565   1.385       .  S
C569        H570   1.111       .  S
C569        C575   1.530   1_655  S
C569        C574   1.539   1_655  S
C569       C1141   1.543       .  S
C571        H572   1.106       .  S
C571       C1712   1.531   1_445  S
C573       C1137   1.556       .  S
C573        C576   1.368       .  D
C573        C949   1.493       .  S
C574        C577   1.386       .  D
C574        C981   1.520       .  S
C575        C578   1.369       .  D
C575       C1013   1.484       .  S
C576       C1707   1.533   1_565  S
C576       C1054   1.498       .  S
C577       C1077   1.487       .  S
C578       C1118   1.497       .  S
Zn579       O583   1.941       .  S
Zn579       O584   1.988       .  S
Zn579       O588   2.000   1_556  S
Zn579       O595   2.046       .  S
Zn580       O583   1.937       .  S
Zn580       O585   2.012   1_556  S
Zn580       O587   2.042       .  S
Zn580       O591   2.000       .  S
Zn581       O583   1.955   1_554  S
Zn581       O586   2.017       .  S
Zn581       O589   2.028       .  S
Zn581       O592   2.020       .  S
Zn582       O583   1.931       .  S
Zn582       O590   2.001   1_556  S
Zn582       O593   2.021       .  S
Zn582       O594   2.003       .  S
O584        C596   1.271       .  A
O585        C597   1.272       .  A
O586        C598   1.275       .  A
O587        C596   1.277       .  A
O588        C598   1.271       .  A
O589        C597   1.274       .  A
O590        C599   1.272       .  A
O591        C600   1.273       .  A
O592        C599   1.274       .  A
O593        C600   1.274       .  A
O594        C601   1.272       .  A
O595        C601   1.276       .  A
C596        C651   1.459       .  S
C597        C657   1.467       .  S
C598        C645   1.460       .  S
C599        C633   1.461       .  S
C600        C641   1.457       .  S
C601        C606   1.465       .  S
C602        C958   1.466       .  S
C602        N603   1.355       .  A
C602        N607   1.362       .  A
N603        C604   1.351       .  A
C604        C625   1.464       .  S
C604        N605   1.357       .  A
N605        C606   1.359       .  A
C606        N607   1.360       .  A
Zn608       O612   1.950   1_554  S
Zn608       O613   2.011   1_554  S
Zn608       O617   1.985       .  S
Zn608       O624   2.028       .  S
Zn609       O612   1.966       .  S
Zn609       O614   2.043       .  S
Zn609       O616   2.019       .  S
Zn609       O620   2.049       .  S
Zn610       O612   1.946   1_554  S
Zn610       O615   2.047       .  S
Zn610       O618   2.013   1_554  S
Zn610       O621   2.001       .  S
Zn611       O612   1.943   1_554  S
Zn611       O619   2.044       .  S
Zn611       O622   2.020   1_554  S
Zn611       O623   2.006       .  S
O613        C625   1.273       .  A
O614        C626   1.276       .  A
O615        C627   1.276       .  A
O616        C625   1.275       .  A
O617        C627   1.269       .  A
O618        C626   1.274       .  A
O619        C628   1.277       .  A
O620        C629   1.276       .  A
O621        C628   1.272       .  A
O622        C629   1.275       .  A
O623        C630   1.272       .  A
O624        C630   1.275       .  A
C626        C653   1.470       .  S
C627        C635   1.460       .  S
C628        C647   1.462       .  S
C629        C639   1.475       .  S
C630        C659   1.460       .  S
C631        C926   1.477       .  S
C631        N632   1.360       .  A
C631        N636   1.361       .  A
N632        C633   1.353       .  A
C633        N634   1.354       .  A
N634        C635   1.355       .  A
C635        N636   1.356       .  A
C637       C1022   1.462       .  S
C637        N642   1.357       .  A
N638        C639   1.361       .  A
N640        C641   1.358       .  A
C641        N642   1.355       .  A
C643        C885   1.461       .  S
C643        N644   1.354       .  A
C643       N1784   1.362       .  A
N644        C645   1.351       .  A
C645        N646   1.358       .  A
N646       C1783   1.359       .  A
C647       N1782   1.357       .  A
C647        N648   1.358       .  A
N648       C1779   1.361       .  A
C649        C990   1.482       .  S
C649       N1786   1.362   1_455  A
C649        N654   1.365       .  A
N650       C1785   1.357       .  A
N650        C651   1.352       .  A
C651       N1788   1.359       .  A
N652       C1787   1.356   1_455  A
N652        C653   1.357       .  A
C653        N654   1.360       .  A
C655        C862   1.474       .  S
C655        N660   1.362   1_545  A
N656        C657   1.356       .  A
N658        C659   1.354   1_545  A
C659        N660   1.357       .  A
Zn661       O665   1.940       .  S
Zn661       O666   2.046       .  S
Zn661       O670   2.005       .  S
Zn661       O677   2.007       .  S
Zn662       O665   1.935       .  S
Zn662       O667   2.007       .  S
Zn662       O669   1.985       .  S
Zn662       O673   2.026       .  S
Zn663       O665   1.966       .  S
Zn663       O668   2.041       .  S
Zn663       O671   2.046       .  S
Zn663       O674   2.036       .  S
Zn664       O665   1.941       .  S
Zn664       O672   2.001       .  S
Zn664       O675   2.006       .  S
Zn664       O676   2.042       .  S
O666        C678   1.277       .  A
O667        C679   1.273       .  A
O668        C680   1.276       .  A
O669        C678   1.269       .  A
O670        C680   1.273       .  A
O671        C679   1.276       .  A
O672        C681   1.272       .  A
O673        C682   1.274       .  A
O674        C681   1.277       .  A
O675        C682   1.272       .  A
O676        C683   1.276       .  A
O677        C683   1.272       .  A
C678        C723   1.458       .  S
C679        C729   1.469       .  S
C680        C739   1.468       .  S
C681        C733   1.465       .  S
C682        C688   1.461       .  S
C683        C717   1.464       .  S
C684       C1045   1.486       .  S
C684        N685   1.362       .  A
C684        N689   1.362       .  A
N685        C686   1.354       .  A
C686        C710   1.460       .  S
C686        N687   1.354       .  A
N687        C688   1.354       .  A
C688        N689   1.358       .  A
Zn690       O694   1.938       .  S
Zn690       O695   2.002       .  S
Zn690       O699   2.011       .  S
Zn690       O706   2.040       .  S
Zn691       O694   1.946       .  S
Zn691       O696   2.000       .  S
Zn691       O698   2.048       .  S
Zn691       O702   2.007       .  S
Zn692       O694   1.958       .  S
Zn692       O697   2.033       .  S
Zn692       O700   2.014       .  S
Zn692       O703   2.029       .  S
Zn693       O694   1.934       .  S
Zn693       O701   1.991       .  S
Zn693       O704   2.026       .  S
Zn693       O705   1.981       .  S
O695        C707   1.273       .  A
O696        C708   1.272       .  A
O697        C709   1.275       .  A
O698        C707   1.277       .  A
O699        C709   1.273       .  A
O700        C708   1.274       .  A
O701        C710   1.270       .  A
O702        C711   1.272       .  A
O703        C710   1.274       .  A
O704        C711   1.273       .  A
O705        C712   1.270       .  A
O706        C712   1.276       .  A
C707        C727   1.465       .  S
C708        C715   1.458       .  S
C709        C721   1.469       .  S
C711        C741   1.462       .  S
C712        C735   1.457       .  S
C713       C1109   1.485       .  S
C713        N718   1.359       .  A
N714        C715   1.350       .  A
N716        C717   1.357       .  A
C717        N718   1.354       .  A
C719       C1086   1.491       .  S
C719        N720   1.362   1_655  A
C719       N1860   1.362       .  A
N720        C721   1.356       .  A
C721        N722   1.358   1_455  A
N722       C1859   1.357       .  A
C723       N1858   1.355       .  A
C723        N724   1.353       .  A
N724       C1855   1.358       .  A
C725        C821   1.473       .  S
C725       N1862   1.363       .  A
C725        N730   1.362       .  A
N726       C1861   1.362   1_455  A
N726        C727   1.357       .  A
C727       N1864   1.356   1_455  A
N728       C1863   1.355       .  A
N728        C729   1.357       .  A
C729        N730   1.358       .  A
C731        C789   1.461       .  S
C731        N732   1.359       .  A
C731        N736   1.357       .  A
N732        C733   1.355       .  A
C733        N734   1.358       .  A
N734        C735   1.357       .  A
C735        N736   1.352       .  A
C737        C757   1.478       .  S
C737        N742   1.360       .  A
N738        C739   1.358       .  A
N740        C741   1.356       .  A
C741        N742   1.354       .  A
C743        H744   1.104       .  S
C743        C749   1.546   1_655  S
C743       C1883   1.555       .  S
C745        H746   1.111       .  S
C745       C1318   1.533   1_455  S
C745        C752   1.547       .  S
C747       C1879   1.556       .  S
C747        C853   1.497       .  S
C748        C751   1.366       .  D
C748       C2030   1.485       .  S
C749        C752   1.379       .  D
C749        C917   1.509       .  S
C750       C1313   1.536       .  S
C750        C766   1.502       .  S
C751       C1966   1.492   1_455  S
C752        C798   1.492       .  S
C753        C758   1.410       .  A
C753        H763   1.083       .  S
C754        C759   1.486       .  S
C754        C755   1.418       .  A
C755        C756   1.405       .  A
C755        C760   1.519       .  S
C756        C757   1.401       .  A
C756        H761   1.083       .  S
C758        C762   1.518       .  S
C759        C764   1.415       .  A
C760        F776   1.382       .  S
C760        F777   1.378       .  S
C760        F778   1.385       .  S
C762        F773   1.384       .  S
C762        F774   1.382       .  S
C762        F775   1.384       .  S
C764        C765   1.415       .  A
C764        C769   1.516       .  S
C765        C766   1.410   1_565  A
C765        H770   1.082       .  S
C767        C768   1.399       .  A
C767        C771   1.515       .  S
C768        H772   1.085       .  S
C769        F782   1.385       .  S
C769        F783   1.382       .  S
C769        F784   1.380       .  S
C771        F779   1.385       .  S
C771       F1916   1.370       .  S
C771        F781   1.382       .  S
F780       C1907   1.365   1_455  S
C785        C786   1.401       .  A
C785        C790   1.396       .  A
C785        H795   1.083       .  S
C786        C791   1.469       .  S
C786        C787   1.410       .  A
C787        C788   1.405       .  A
C787        C792   1.516       .  S
C788        C789   1.404       .  A
C788        H793   1.083       .  S
C789        C790   1.413       .  A
C790        C794   1.521       .  S
C791        C796   1.409       .  A
C791        C800   1.399       .  A
C792        F808   1.382       .  S
C792        F809   1.383       .  S
C792        F810   1.385       .  S
C794        F805   1.385       .  S
C794        F806   1.382       .  S
C794        F807   1.384       .  S
C796        C797   1.391       .  A
C796        C801   1.520       .  S
C797        C798   1.404       .  A
C797        H802   1.079       .  S
C798        C799   1.428       .  A
C799        C800   1.406       .  A
C799        C803   1.520       .  S
C800        H804   1.085       .  S
C801        F814   1.384       .  S
C801        F815   1.384       .  S
C801        F816   1.382       .  S
C803        F811   1.383       .  S
C803       F1948   1.373       .  S
C803        F813   1.385       .  S
F812       C1939   1.372       .  S
C817       C1954   1.404       .  A
C817        C822   1.404       .  A
C817        H827   1.084       .  S
C818        C823   1.487       .  S
C818       C1953   1.403       .  A
C818        C819   1.418       .  A
C819        C820   1.411       .  A
C819        C824   1.518       .  S
C820        C821   1.403       .  A
C820        H825   1.083       .  S
C821       C1958   1.412       .  A
C822       C1957   1.412       .  A
C822        C826   1.518       .  S
C823        C828   1.413       .  A
C823       C1968   1.399       .  A
C824        F840   1.382       .  S
C824        F841   1.381       .  S
C824        F842   1.385       .  S
C826        F837   1.383       .  S
C826        F838   1.384       .  S
C826        F839   1.383   1_655  S
C828        C829   1.407       .  A
C828        C833   1.518       .  S
C829        C830   1.405       .  A
C829        H834   1.082       .  S
C830       C1887   1.501       .  S
C830       C1967   1.427       .  A
C831       C1966   1.422   1_455  A
C831        C832   1.406       .  A
C831        C835   1.517       .  S
C832       C1959   1.399   1_455  A
C832        H836   1.083       .  S
C833        F846   1.384       .  S
C833       F1983   1.381       .  S
C833        F848   1.381       .  S
C835        F843   1.378       .  S
C835        F844   1.373       .  S
C835       F1981   1.385       .  S
F845       C1971   1.385       .  S
F847       C1969   1.379       .  S
C849        C854   1.407       .  A
C849        H859   1.083       .  S
C850        C855   1.487   1_565  S
C850        C851   1.413       .  A
C851        C852   1.406       .  A
C851        C856   1.520       .  S
C852        H857   1.082       .  S
C853        C854   1.428       .  A
C854        C858   1.521       .  S
C855        C860   1.417   1_545  A
C856        F872   1.381       .  S
C856        F873   1.382       .  S
C856        F874   1.384       .  S
C858        F869   1.379       .  S
C858        F870   1.385       .  S
C858        F871   1.376       .  S
C860        C861   1.411       .  A
C860        C865   1.518       .  S
C861        C862   1.403   1_565  A
C861        H866   1.083       .  S
C863        C864   1.402       .  A
C863        C867   1.520       .  S
C864        H868   1.083       .  S
C865        F878   1.385       .  S
C865        F879   1.382   1_565  S
C865        F880   1.382       .  S
C867        F875   1.383       .  S
C867        F876   1.384       .  S
C867        F877   1.384       .  S
C881       C2018   1.403   1_455  A
C881        C886   1.407       .  A
C881        H891   1.083       .  S
C882        C887   1.473       .  S
C882       C2017   1.403       .  A
C882        C883   1.418       .  A
C883        C884   1.398       .  A
C883        C888   1.521       .  S
C884        C885   1.397       .  A
C884        H889   1.084       .  S
C885       C2022   1.412       .  A
C886       C2021   1.414       .  A
C886        C890   1.516       .  S
C887        C892   1.414       .  A
C887       C2032   1.391       .  A
C888        F904   1.382       .  S
C888        F905   1.379       .  S
C888        F906   1.385       .  S
C890        F901   1.384       .  S
C890        F902   1.382       .  S
C890        F903   1.383       .  S
C892        C893   1.410       .  A
C892        C897   1.515       .  S
C893        C894   1.404       .  A
C893        H898   1.083       .  S
C894       C1884   1.480       .  S
C894       C2031   1.420       .  A
C895       C2030   1.419       .  A
C895        C896   1.393       .  A
C895        C899   1.509       .  S
C896       C2023   1.392   1_455  A
C896        H900   1.086       .  S
C897        F910   1.384       .  S
C897        F911   1.382       .  S
C897        F912   1.382       .  S
C899        F907   1.384       .  S
C899        F909   1.377   1_565  S
C913        C914   1.392       .  A
C913        C918   1.396       .  A
C913        H923   1.086       .  S
C914        C919   1.475       .  S
C914        C915   1.409       .  A
C915        C916   1.408       .  A
C915        C920   1.518       .  S
C916        C917   1.414       .  A
C916        H921   1.079       .  S
C917        C918   1.428       .  A
C918        C922   1.512       .  S
C919        C924   1.415       .  A
C919        C928   1.402       .  A
C920        F936   1.383       .  S
C920        F937   1.380       .  S
C920        F938   1.385       .  S
C922        F933   1.385       .  S
C922        F934   1.367   1_455  S
C924        C925   1.399       .  A
C924        C929   1.520       .  S
C925        C926   1.402       .  A
C925        H930   1.083       .  S
C926        C927   1.419       .  A
C927        C928   1.407       .  A
C927        C931   1.519       .  S
C928        H932   1.083       .  S
C929        F942   1.384       .  S
C929        F943   1.380       .  S
C929        F944   1.380       .  S
C931        F939   1.382       .  S
C931        F940   1.383       .  S
C931        F941   1.385       .  S
C945        C946   1.404       .  A
C945        C950   1.411       .  A
C945        H955   1.083       .  S
C946        C951   1.486       .  S
C946        C947   1.414       .  A
C947        C948   1.402       .  A
C947        C952   1.520       .  S
C948        C949   1.397       .  A
C948        H953   1.074       .  S
C949        C950   1.418       .  A
C950        C954   1.517       .  S
C951        C956   1.420       .  A
C951        C960   1.405       .  A
C952        F968   1.381       .  S
C952        F969   1.383       .  S
C952        F970   1.383       .  S
C954        F965   1.385       .  S
C954        F966   1.380       .  S
C954        F967   1.376   1_565  S
C956        C957   1.399       .  A
C956        C961   1.520       .  S
C957        C958   1.397       .  A
C957        H962   1.084       .  S
C958        C959   1.417       .  A
C959        C960   1.408       .  A
C959        C963   1.519       .  S
C960        H964   1.083       .  S
C961        F974   1.384       .  S
C961        F975   1.380       .  S
C961        F976   1.381       .  S
C963        F971   1.384       .  S
C963        F972   1.382       .  S
C963        F973   1.382       .  S
C977        C978   1.398       .  A
C977        C982   1.412       .  A
C977        H987   1.085       .  S
C978        C983   1.488       .  S
C978       C2115   1.409   1_455  A
C979       C2114   1.409       .  A
C979        C980   1.401       .  A
C979        C984   1.519       .  S
C980       C2117   1.405       .  A
C980        H985   1.077       .  S
C981       C2116   1.414   1_455  A
C981        C982   1.435       .  A
C982        C986   1.517       .  S
C983        C988   1.417       .  A
C983       C2128   1.402   1_455  A
C984       F1000   1.382       .  S
C984       F2137   1.382       .  S
C984       F1002   1.385       .  S
C986        F997   1.384       .  S
C986       F2134   1.383       .  S
C986        F999   1.370       .  S
C988        C989   1.407       .  A
C988        C993   1.519       .  S
C989        C990   1.403       .  A
C989        H994   1.083       .  S
C990       C2127   1.420   1_455  A
C991       C2126   1.413       .  A
C991        C992   1.404       .  A
C991        C995   1.517       .  S
C992       C2119   1.400       .  A
C992        H996   1.083       .  S
C993       F1006   1.385       .  S
C993       F1007   1.382       .  S
C993       F1008   1.382       .  S
C995       F1003   1.385       .  S
C995       F1004   1.384       .  S
C995       F1005   1.382       .  S
F998       C2122   1.378       .  S
F1001      C2120   1.382       .  S
C1009      C1014   1.402       .  A
C1009      H1019   1.084       .  S
C1010      C1015   1.477       .  S
C1010      C1011   1.413       .  A
C1011      C1012   1.398       .  A
C1011      C1016   1.519       .  S
C1012      C1013   1.401       .  A
C1012      H1017   1.078       .  S
C1014      C1018   1.521       .  S
C1015      C1020   1.417       .  A
C1016      F1032   1.381       .  S
C1016      F1033   1.382       .  S
C1016      F1034   1.384       .  S
C1018      F1029   1.368   1_455  S
C1018      F1030   1.386       .  S
C1018      F2167   1.372       .  S
C1020      C1021   1.401       .  A
C1020      C1025   1.517       .  S
C1021      C1022   1.397       .  A
C1021      H1026   1.084       .  S
C1023      C1024   1.411       .  A
C1023      C1027   1.517   1_545  S
C1024      H1028   1.083   1_545  S
C1025      F1038   1.385       .  S
C1025      F1039   1.380       .  S
C1025      F1040   1.383       .  S
C1027      F1035   1.382       .  S
C1027      F1036   1.383   1_565  S
C1027      F1037   1.385       .  S
F1031      C2154   1.373       .  S
C1041      C1042   1.402       .  A
C1041      C1046   1.408       .  A
C1041      H1051   1.083       .  S
C1042      C1047   1.484       .  S
C1042      C1043   1.414       .  A
C1043      C1044   1.404       .  A
C1043      C1048   1.520       .  S
C1044      C1045   1.406       .  A
C1044      H1049   1.083       .  S
C1045      C1046   1.422       .  A
C1046      C1050   1.520       .  S
C1047      C1052   1.414       .  A
C1047      C1056   1.400       .  A
C1048      F1064   1.382       .  S
C1048      F1065   1.382       .  S
C1048      F1066   1.385       .  S
C1050      F1061   1.383       .  S
C1050      F1062   1.385       .  S
C1050      F1063   1.383       .  S
C1052      C1053   1.406       .  A
C1052      C1057   1.520       .  S
C1053      C1054   1.406       .  A
C1053      H1058   1.076       .  S
C1054      C1055   1.420       .  A
C1055      C1056   1.404       .  A
C1055      C1059   1.512   1_565  S
C1056      H1060   1.084       .  S
C1057      F1070   1.385       .  S
C1057      F1071   1.382       .  S
C1057      F1072   1.382       .  S
C1059      F1067   1.382       .  S
C1059      F1069   1.385       .  S
C1073      C1074   1.398       .  A
C1073      C1078   1.398       .  A
C1073      H1083   1.085       .  S
C1074      C1079   1.473       .  S
C1074      C2211   1.411   1_455  A
C1075      C2210   1.414       .  A
C1075      C1076   1.407       .  A
C1075      C1080   1.516       .  S
C1076      C2213   1.407       .  A
C1076      H1081   1.080       .  S
C1077      C2212   1.406       .  A
C1077      C1078   1.422       .  A
C1078      C1082   1.515       .  S
C1079      C1084   1.411       .  A
C1079      C2224   1.398   1_455  A
C1080      F1096   1.382       .  S
C1080      F1097   1.383       .  S
C1080      F1098   1.384       .  S
C1082      F1093   1.384       .  S
C1082      F1094   1.383       .  S
C1082      F1095   1.373       .  S
C1084      C1085   1.405       .  A
C1084      C1089   1.519       .  S
C1085      C1086   1.413   1_455  A
C1085      H1090   1.084       .  S
C1086      C2223   1.424       .  A
C1087      C2222   1.425       .  A
C1087      C1088   1.407       .  A
C1087      C1091   1.522       .  S
C1088      C2215   1.403       .  A
C1088      H1092   1.082       .  S
C1089      F1102   1.383       .  S
C1089      F1103   1.383       .  S
C1089      F1104   1.383       .  S
C1091      F1099   1.384       .  S
C1091      F1100   1.384       .  S
C1091      F1101   1.383       .  S
C1105      C1110   1.398       .  A
C1105      H1115   1.084       .  S
C1106      C1111   1.473       .  S
C1106      C1107   1.411       .  A
C1107      C1108   1.405       .  A
C1107      C1112   1.520       .  S
C1108      C1109   1.411       .  A
C1108      H1113   1.083       .  S
C1110      C1114   1.523       .  S
C1111      C1116   1.412       .  A
C1112      F1128   1.381       .  S
C1112      F1129   1.383       .  S
C1112      F1130   1.385       .  S
C1114      F1125   1.385       .  S
C1114      F1126   1.382       .  S
C1114      F1127   1.384       .  S
C1116      C1117   1.403       .  A
C1116      C1121   1.515       .  S
C1117      C1118   1.406       .  A
C1117      H1122   1.074       .  S
C1119      C1120   1.404       .  A
C1119      C1123   1.509       .  S
C1120      H1124   1.086       .  S
C1121      F1134   1.384       .  S
C1121      F1135   1.383       .  S
C1121      F1136   1.383       .  S
C1123      F1131   1.386       .  S
C1123      F1132   1.376       .  S
C1123      F1133   1.381       .  S
C1137      H1138   1.100       .  S
C1137      C1143   1.552       .  S
C1137      C1142   1.532   1_565  S
C1139      H1140   1.100       .  S
C1139      C1713   1.550       .  S
C1139      C1714   1.552       .  S
C1141      C1144   1.368       .  D
C1141      C1517   1.470       .  S
C1142      C1145   1.371       .  D
C1142      C1549   1.492       .  S
C1143      C1146   1.396       .  D
C1143      C1581   1.521       .  S
C1144      C1622   1.507       .  S
C1145      C1707   1.553       .  S
C1145      C1645   1.496       .  S
C1146      C1707   1.554   1_565  S
C1146      C1686   1.510       .  S
Zn1147     O1151   1.934       .  S
Zn1147     O1152   1.991       .  S
Zn1147     O1156   1.999   1_556  S
Zn1147     O1163   2.042       .  S
Zn1148     O1151   1.929       .  S
Zn1148     O1153   2.033   1_556  S
Zn1148     O1155   2.040       .  S
Zn1148     O1159   2.013       .  S
Zn1149     O1151   1.942   1_554  S
Zn1149     O1154   2.012       .  S
Zn1149     O1157   2.015       .  S
Zn1149     O1160   2.002       .  S
Zn1150     O1151   1.942       .  S
Zn1150     O1158   2.017   1_556  S
Zn1150     O1161   2.043       .  S
Zn1150     O1162   1.996       .  S
O1152      C1164   1.272       .  A
O1153      C1165   1.276       .  A
O1154      C1166   1.272       .  A
O1155      C1164   1.278       .  A
O1156      C1166   1.270       .  A
O1157      C1165   1.272       .  A
O1158      C1167   1.274       .  A
O1159      C1168   1.274       .  A
O1160      C1167   1.274       .  A
O1161      C1168   1.277       .  A
O1162      C1169   1.271       .  A
O1163      C1169   1.276       .  A
C1164      C1219   1.458       .  S
C1165      C1225   1.467       .  S
C1166      C1213   1.460       .  S
C1167      C1201   1.461       .  S
C1168      C1209   1.466       .  S
C1169      C1174   1.460       .  S
C1170      C1526   1.454       .  S
C1170      N1171   1.353       .  A
C1170      N1175   1.356       .  A
N1171      C1172   1.352       .  A
C1172      C1193   1.462       .  S
C1172      N1173   1.361       .  A
N1173      C1174   1.361       .  A
C1174      N1175   1.354       .  A
Zn1176     O1180   1.941       .  S
Zn1176     O1181   2.005   1_554  S
Zn1176     O1185   2.003       .  S
Zn1176     O1192   2.020       .  S
Zn1177     O1180   1.957   1_556  S
Zn1177     O1182   2.029       .  S
Zn1177     O1184   2.019       .  S
Zn1177     O1188   2.033       .  S
Zn1178     O1180   1.929       .  S
Zn1178     O1183   2.043       .  S
Zn1178     O1186   2.001   1_554  S
Zn1178     O1189   2.007       .  S
Zn1179     O1180   1.936       .  S
Zn1179     O1187   2.059       .  S
Zn1179     O1190   2.033   1_554  S
Zn1179     O1191   2.005       .  S
O1181      C1193   1.272       .  A
O1182      C1194   1.274       .  A
O1183      C1195   1.276       .  A
O1184      C1193   1.276       .  A
O1185      C1195   1.271       .  A
O1186      C1194   1.272       .  A
O1187      C1196   1.280       .  A
O1188      C1197   1.275       .  A
O1189      C1196   1.273       .  A
O1190      C1197   1.276       .  A
O1191      C1198   1.273       .  A
O1192      C1198   1.274       .  A
C1194      C1221   1.463       .  S
C1195      C1203   1.464       .  S
C1196      C1215   1.468       .  S
C1197      C1207   1.473       .  S
C1198      C1227   1.457       .  S
C1199      C1494   1.475       .  S
C1199      N1200   1.354       .  A
C1199      N1204   1.360       .  A
N1200      C1201   1.350       .  A
C1201      N1202   1.359       .  A
N1202      C1203   1.361       .  A
C1203      N1204   1.358       .  A
C1205      C1590   1.486       .  S
C1205      N1774   1.365   1_545  A
C1205      N1210   1.364       .  A
N1206      C1773   1.364       .  A
N1206      C1207   1.360       .  A
C1207      N1776   1.357       .  A
N1208      C1775   1.356   1_545  A
N1208      C1209   1.355       .  A
C1209      N1210   1.358       .  A
C1211      C1453   1.479   1_455  S
C1211      N1212   1.357   1_455  A
N1212      C1213   1.350       .  A
C1213      N1214   1.355   1_655  A
C1215      N1216   1.361       .  A
C1217      C1558   1.456       .  S
C1217      N1222   1.359       .  A
N1218      C1219   1.353       .  A
N1220      C1221   1.357       .  A
C1221      N1222   1.356       .  A
C1223      C1430   1.472       .  S
C1223      N1792   1.360       .  A
C1223      N1228   1.359       .  A
N1224      C1791   1.364       .  A
N1224      C1225   1.359       .  A
C1225      N1794   1.352       .  A
N1226      C1793   1.356       .  A
N1226      C1227   1.355       .  A
C1227      N1228   1.354       .  A
Zn1229     O1233   1.949       .  S
Zn1229     O1234   2.061       .  S
Zn1229     O1238   2.014       .  S
Zn1229     O1245   2.013       .  S
Zn1230     O1233   1.939       .  S
Zn1230     O1235   2.011       .  S
Zn1230     O1237   1.996       .  S
Zn1230     O1241   2.033       .  S
Zn1231     O1233   1.979       .  S
Zn1231     O1236   2.054       .  S
Zn1231     O1239   2.059       .  S
Zn1231     O1242   2.045       .  S
Zn1232     O1233   1.952       .  S
Zn1232     O1240   2.003       .  S
Zn1232     O1243   1.991       .  S
Zn1232     O1244   2.036       .  S
O1234      C1246   1.278       .  A
O1235      C1247   1.274       .  A
O1236      C1248   1.279       .  A
O1237      C1246   1.270       .  A
O1238      C1248   1.275       .  A
O1239      C1247   1.277       .  A
O1240      C1249   1.272       .  A
O1241      C1250   1.275       .  A
O1242      C1249   1.278       .  A
O1243      C1250   1.270       .  A
O1244      C1251   1.275       .  A
O1245      C1251   1.273       .  A
C1246      C1291   1.466       .  S
C1247      C1297   1.473       .  S
C1248      C1307   1.472       .  S
C1249      C1301   1.470       .  S
C1250      C1256   1.459       .  S
C1251      C1285   1.465       .  S
C1252      C1613   1.494       .  S
C1252      N1253   1.363       .  A
C1252      N1257   1.361       .  A
N1253      C1254   1.354       .  A
C1254      C1278   1.462       .  S
C1254      N1255   1.354       .  A
N1255      C1256   1.354       .  A
C1256      N1257   1.356       .  A
Zn1258     O1262   1.939       .  S
Zn1258     O1263   2.029       .  S
Zn1258     O1267   2.025       .  S
Zn1258     O1274   2.054       .  S
Zn1259     O1262   1.945       .  S
Zn1259     O1264   1.997       .  S
Zn1259     O1266   2.032       .  S
Zn1259     O1270   1.987       .  S
Zn1260     O1262   1.953       .  S
Zn1260     O1265   2.030       .  S
Zn1260     O1268   2.010       .  S
Zn1260     O1271   2.030       .  S
Zn1261     O1262   1.934       .  S
Zn1261     O1269   1.997       .  S
Zn1261     O1272   2.032       .  S
Zn1261     O1273   1.985       .  S
O1263      C1275   1.276       .  A
O1264      C1276   1.272       .  A
O1265      C1277   1.275       .  A
O1266      C1275   1.275       .  A
O1267      C1277   1.275       .  A
O1268      C1276   1.274       .  A
O1269      C1278   1.270       .  A
O1270      C1279   1.269       .  A
O1271      C1278   1.274       .  A
O1272      C1279   1.274       .  A
O1273      C1280   1.271       .  A
O1274      C1280   1.279       .  A
C1275      C1295   1.468       .  S
C1276      C1283   1.456       .  S
C1277      C1289   1.472       .  S
C1279      C1309   1.458       .  S
C1280      C1303   1.460       .  S
C1281      C1677   1.471       .  S
C1281      N1850   1.354       .  A
C1281      N1286   1.365   1_565  A
N1282      C1849   1.352       .  A
N1282      C1283   1.348       .  A
C1283      N1852   1.357       .  A
N1284      C1851   1.355       .  A
N1284      C1285   1.356   1_565  A
C1285      N1286   1.360       .  A
C1287      C1654   1.492       .  S
C1287      N1288   1.364       .  A
N1288      C1289   1.359       .  A
C1289      N1290   1.357       .  A
C1291      N1292   1.358       .  A
C1293      C1389   1.479       .  S
C1293      N1298   1.367       .  A
N1294      C1295   1.359       .  A
N1296      C1297   1.356       .  A
C1297      N1298   1.362       .  A
C1299      C1357   1.464       .  S
C1299      N1300   1.359       .  A
C1299      N1304   1.356       .  A
N1300      C1301   1.356       .  A
C1301      N1302   1.361       .  A
N1302      C1303   1.359       .  A
C1303      N1304   1.351       .  A
C1305      C1325   1.472       .  S
C1305      N1874   1.365       .  A
C1305      N1310   1.356       .  A
N1306      C1873   1.364   1_545  A
N1306      C1307   1.360       .  A
C1307      N1876   1.358   1_545  A
N1308      C1875   1.359       .  A
N1308      C1309   1.357       .  A
C1309      N1310   1.349       .  A
C1311      H1312   1.105       .  S
C1311      C1317   1.543       .  S
C1311      C1884   1.541   1_545  S
C1313      H1314   1.107       .  S
C1313      C1887   1.543   1_545  S
C1313      C1320   1.552       .  S
C1315      C1886   1.376       .  D
C1315      C1421   1.498       .  S
C1316      C1879   1.541       .  S
C1316      C1319   1.369       .  D
C1317      C1320   1.383       .  D
C1317      C1485   1.516       .  S
C1318      C1883   1.372       .  D
C1318      C1334   1.495       .  S
C1319      C1881   1.547       .  S
C1320      C1366   1.491       .  S
C1321      C1890   1.404       .  A
C1321      C1326   1.408       .  A
C1321      H1331   1.083   1_565  S
C1322      C1327   1.477       .  S
C1322      C1889   1.405       .  A
C1322      C1323   1.415       .  A
C1323      C1324   1.399       .  A
C1323      C1328   1.519       .  S
C1324      C1325   1.401       .  A
C1324      H1329   1.083       .  S
C1325      C1894   1.414       .  A
C1326      C1893   1.416       .  A
C1326      C1330   1.518   1_565  S
C1327      C1332   1.413       .  A
C1327      C1904   1.392       .  A
C1328      F1344   1.382       .  S
C1328      F1345   1.378       .  S
C1328      F1346   1.384       .  S
C1330      F1341   1.385       .  S
C1330      F1342   1.382       .  S
C1330      F1343   1.383   1_545  S
C1332      C1333   1.412       .  A
C1332      C1337   1.517       .  S
C1333      C1334   1.411       .  A
C1333      H1338   1.082       .  S
C1334      C1903   1.425       .  A
C1335      C1902   1.428   1_545  A
C1335      C1336   1.393       .  A
C1335      C1339   1.513       .  S
C1336      C1895   1.390   1_545  A
C1336      H1340   1.086       .  S
C1337      F1350   1.385       .  S
C1337      F1351   1.383       .  S
C1337      F1352   1.380       .  S
C1339      F1347   1.385       .  S
C1339      F1349   1.382   1_655  S
C1353      C1354   1.399       .  A
C1353      C1358   1.394       .  A
C1353      H1363   1.083       .  S
C1354      C1359   1.466       .  S
C1354      C1355   1.409       .  A
C1355      C1356   1.406       .  A
C1355      C1360   1.516       .  S
C1356      C1357   1.407       .  A
C1356      H1361   1.083       .  S
C1357      C1358   1.415       .  A
C1358      C1362   1.522       .  S
C1359      C1364   1.409       .  A
C1359      C1368   1.401       .  A
C1360      F1376   1.383       .  S
C1360      F1377   1.383       .  S
C1360      F1378   1.384       .  S
C1362      F1373   1.385       .  S
C1362      F1374   1.382       .  S
C1362      F1375   1.383       .  S
C1364      C1365   1.389       .  A
C1364      C1369   1.521       .  S
C1365      C1366   1.403       .  A
C1365      H1370   1.077       .  S
C1366      C1367   1.428       .  A
C1367      C1368   1.407       .  A
C1367      C1371   1.521       .  S
C1368      H1372   1.085       .  S
C1369      F1382   1.384       .  S
C1369      F1383   1.383       .  S
C1369      F1384   1.381       .  S
C1371      F1379   1.383       .  S
C1371      F1381   1.384       .  S
C1385      C1390   1.408       .  A
C1385      H1395   1.084       .  S
C1386      C1391   1.484       .  S
C1386      C1387   1.419       .  A
C1387      C1388   1.409       .  A
C1387      C1392   1.519       .  S
C1388      C1389   1.404       .  A
C1388      H1393   1.085       .  S
C1390      C1394   1.518       .  S
C1391      C1396   1.412       .  A
C1392      F1408   1.383       .  S
C1392      F1409   1.382       .  S
C1392      F1410   1.383       .  S
C1394      F1405   1.384       .  S
C1394      F1406   1.385       .  S
C1394      F1407   1.382       .  S
C1396      C1397   1.402       .  A
C1396      C1401   1.516       .  S
C1397      C1398   1.402       .  A
C1397      H1402   1.082       .  S
C1399      C1400   1.413       .  A
C1399      C1403   1.517       .  S
C1400      H1404   1.083       .  S
C1401      F1414   1.384       .  S
C1401      F1416   1.382       .  S
C1403      F1411   1.379       .  S
C1403      F1412   1.372       .  S
C1417      C1986   1.398   1_545  A
C1417      C1422   1.410       .  A
C1417      H1427   1.084       .  S
C1418      C1423   1.474       .  S
C1418      C1985   1.397       .  A
C1418      C1419   1.411       .  A
C1419      C1420   1.400       .  A
C1419      C1424   1.519       .  S
C1420      C1989   1.404       .  A
C1420      H1425   1.084       .  S
C1421      C1988   1.404       .  A
C1421      C1422   1.430   1_565  A
C1422      C1426   1.519       .  S
C1423      C1428   1.410       .  A
C1423      C2000   1.401       .  A
C1424      F1440   1.382       .  S
C1424      F1441   1.381       .  S
C1424      F1442   1.382       .  S
C1426      F1437   1.382       .  S
C1426      F1438   1.385       .  S
C1426      F1439   1.371       .  S
C1428      C1429   1.405       .  A
C1428      C1433   1.519       .  S
C1429      C1430   1.406       .  A
C1429      H1434   1.083       .  S
C1430      C1999   1.417       .  A
C1431      C1998   1.417       .  A
C1431      C1432   1.403       .  A
C1431      C1435   1.520       .  S
C1432      C1991   1.401   1_545  A
C1432      H1436   1.083       .  S
C1433      F1446   1.384       .  S
C1433      F1447   1.383       .  S
C1433      F1448   1.382       .  S
C1435      F1443   1.382       .  S
C1435      F1444   1.383       .  S
C1435      F1445   1.385       .  S
C1449      C1454   1.410       .  A
C1449      H1459   1.083       .  S
C1450      C1455   1.475       .  S
C1450      C1451   1.416       .  A
C1451      C1452   1.399       .  A
C1451      C1456   1.523       .  S
C1452      C1453   1.404       .  A
C1452      H1457   1.083       .  S
C1454      C1458   1.516       .  S
C1455      C1460   1.411       .  A
C1456      F1472   1.382       .  S
C1456      F1473   1.379       .  S
C1456      F1474   1.384       .  S
C1458      F1469   1.384       .  S
C1458      F1470   1.383       .  S
C1458      F1471   1.383       .  S
C1460      C1461   1.412       .  A
C1460      C1465   1.517       .  S
C1461      C1462   1.411       .  A
C1461      H1466   1.081       .  S
C1463      C1464   1.397       .  A
C1463      C1467   1.511       .  S
C1464      H1468   1.086       .  S
C1465      F1478   1.384       .  S
C1465      F1479   1.383       .  S
C1465      F1480   1.380       .  S
C1467      F1475   1.385       .  S
C1467      F2044   1.372       .  S
C1467      F1477   1.377       .  S
F1476      C2035   1.372   1_545  S
C1481      C1482   1.392       .  A
C1481      C1486   1.397       .  A
C1481      H1491   1.085       .  S
C1482      C1487   1.475       .  S
C1482      C1483   1.408       .  A
C1483      C1484   1.409       .  A
C1483      C1488   1.518       .  S
C1484      C1485   1.417       .  A
C1484      H1489   1.078       .  S
C1485      C1486   1.430       .  A
C1486      C1490   1.514       .  S
C1487      C1492   1.415       .  A
C1487      C1496   1.404       .  A
C1488      F1504   1.383       .  S
C1488      F1505   1.381       .  S
C1488      F1506   1.385       .  S
C1490      F1501   1.386       .  S
C1490      F1502   1.367       .  S
C1490      F2071   1.382       .  S
C1492      C1493   1.397       .  A
C1492      C1497   1.519       .  S
C1493      C1494   1.402       .  A
C1493      H1498   1.083       .  S
C1494      C1495   1.416       .  A
C1495      C1496   1.408       .  A
C1495      C1499   1.517       .  S
C1496      H1500   1.083       .  S
C1497      F1510   1.385       .  S
C1497      F1511   1.381       .  S
C1497      F1512   1.381       .  S
C1499      F1507   1.382       .  S
C1499      F1508   1.384       .  S
C1499      F1509   1.384       .  S
F1503      C2058   1.383       .  S
C1513      C1514   1.401       .  A
C1513      C1518   1.404       .  A
C1513      H1523   1.083       .  S
C1514      C1519   1.464       .  S
C1514      C1515   1.410       .  A
C1515      C1516   1.394       .  A
C1515      C1520   1.518       .  S
C1516      C1517   1.399       .  A
C1516      H1521   1.080       .  S
C1517      C1518   1.413       .  A
C1518      C1522   1.517       .  S
C1519      C1524   1.418       .  A
C1519      C1528   1.399       .  A
C1520      F1536   1.383       .  S
C1520      F1537   1.381       .  S
C1520      F1538   1.385       .  S
C1522      F1533   1.385       .  S
C1522      F1534   1.382       .  S
C1522      F1535   1.378       .  S
C1524      C1525   1.394       .  A
C1524      C1529   1.520       .  S
C1525      C1526   1.396       .  A
C1525      H1530   1.086       .  S
C1526      C1527   1.417       .  A
C1527      C1528   1.401       .  A
C1527      C1531   1.518       .  S
C1528      H1532   1.085       .  S
C1529      F1542   1.384       .  S
C1529      F1543   1.380       .  S
C1529      F1544   1.381       .  S
C1531      F1539   1.383       .  S
C1531      F1540   1.381       .  S
C1531      F1541   1.384       .  S
C1545      C1546   1.393       .  A
C1545      C1550   1.400       .  A
C1545      H1555   1.084       .  S
C1546      C1551   1.469       .  S
C1547      C1548   1.403       .  A
C1547      C1552   1.518       .  S
C1548      H1553   1.076       .  S
C1549      C1550   1.421       .  A
C1550      C1554   1.506       .  S
C1551      C1556   1.416       .  A
C1552      F1568   1.383       .  S
C1552      F1570   1.384       .  S
C1554      F1565   1.385       .  S
C1554      F1567   1.374       .  S
C1556      C1557   1.400       .  A
C1556      C1561   1.520       .  S
C1557      C1558   1.397       .  A
C1557      H1562   1.084       .  S
C1559      C1560   1.407       .  A
C1559      C1563   1.517       .  S
C1560      H1564   1.083       .  S
C1561      F1574   1.385       .  S
C1561      F1575   1.380       .  S
C1561      F1576   1.381       .  S
C1563      F1571   1.384       .  S
C1563      F1572   1.384       .  S
C1563      F1573   1.383   1_455  S
C1577      C2146   1.388       .  A
C1577      C1582   1.399       .  A
C1577      H1587   1.084       .  S
C1578      C1583   1.489       .  S
C1578      C2145   1.392   1_545  A
C1578      C1579   1.411       .  A
C1579      C1580   1.413       .  A
C1579      C1584   1.516       .  S
C1580      C1581   1.414   1_545  A
C1580      H1585   1.080       .  S
C1581      C2150   1.436       .  A
C1582      C2149   1.435       .  A
C1582      C1586   1.517       .  S
C1583      C1588   1.417       .  A
C1583      C2160   1.404   1_545  A
C1584      F1600   1.382       .  S
C1584      F1601   1.381       .  S
C1584      F1602   1.385       .  S
C1586      F1597   1.373       .  S
C1586      F1598   1.386       .  S
C1588      C1589   1.406       .  A
C1588      C1593   1.519       .  S
C1589      C1590   1.403       .  A
C1589      H1594   1.083       .  S
C1590      C2159   1.420   1_545  A
C1591      C2158   1.419       .  A
C1591      C1592   1.409       .  A
C1591      C1595   1.517       .  S
C1592      C2151   1.402       .  A
C1592      H1596   1.083       .  S
C1593      F1606   1.385       .  S
C1593      F1607   1.381       .  S
C1593      F1608   1.380       .  S
C1595      F1603   1.382       .  S
C1595      F1604   1.383       .  S
C1595      F1605   1.385       .  S
C1609      C1610   1.399       .  A
C1609      C1614   1.407       .  A
C1609      H1619   1.083       .  S
C1610      C1615   1.479       .  S
C1610      C1611   1.410       .  A
C1611      C1612   1.402       .  A
C1611      C1616   1.521       .  S
C1612      C1613   1.411       .  A
C1612      H1617   1.082       .  S
C1613      C1614   1.427       .  A
C1614      C1618   1.522       .  S
C1615      C1620   1.411       .  A
C1615      C1624   1.398       .  A
C1616      F1632   1.382       .  S
C1616      F1633   1.382       .  S
C1616      F1634   1.385       .  S
C1618      F1629   1.384       .  S
C1618      F1630   1.385       .  S
C1618      F1631   1.383       .  S
C1620      C1621   1.404       .  A
C1620      C1625   1.519       .  S
C1621      C1622   1.409       .  A
C1621      H1626   1.074       .  S
C1622      C1623   1.420       .  A
C1623      C1624   1.403       .  A
C1623      C1627   1.510       .  S
C1624      H1628   1.084       .  S
C1625      F1638   1.385       .  S
C1625      F1639   1.382       .  S
C1625      F1640   1.383       .  S
C1627      F1635   1.380       .  S
C1627      F2204   1.378       .  S
C1627      F1637   1.384       .  S
F1636      C2195   1.373       .  S
C1641      C1642   1.400       .  A
C1641      C1646   1.402       .  A
C1641      H1651   1.084       .  S
C1642      C1647   1.488       .  S
C1643      C1644   1.404       .  A
C1643      C1648   1.513       .  S
C1644      H1649   1.082       .  S
C1645      C1646   1.424       .  A
C1646      C1650   1.516       .  S
C1647      C1652   1.415       .  A
C1648      F1664   1.382       .  S
C1648      F1665   1.383       .  S
C1648      F1666   1.385       .  S
C1650      F1661   1.383       .  S
C1650      F1662   1.377       .  S
C1650      F1663   1.379       .  S
C1652      C1653   1.405       .  A
C1652      C1657   1.517       .  S
C1653      C1654   1.408       .  A
C1653      H1658   1.084       .  S
C1655      C1656   1.407       .  A
C1655      C1659   1.521       .  S
C1656      H1660   1.081       .  S
C1657      F1670   1.384       .  S
C1657      F1671   1.383       .  S
C1657      F1672   1.383       .  S
C1659      F1667   1.384       .  S
C1659      F1668   1.383       .  S
C1659      F1669   1.382       .  S
C1673      C2242   1.397       .  A
C1673      C1678   1.400       .  A
C1673      H1683   1.084       .  S
C1674      C1679   1.471       .  S
C1674      C2241   1.398       .  A
C1674      C1675   1.411       .  A
C1675      C1676   1.406       .  A
C1675      C1680   1.518   1_565  S
C1676      C1677   1.405       .  A
C1676      H1681   1.083   1_565  S
C1677      C2246   1.421       .  A
C1678      C2245   1.424       .  A
C1678      C1682   1.523       .  S
C1679      C1684   1.412   1_565  A
C1679      C2256   1.399       .  A
C1680      F1696   1.383   1_545  S
C1680      F1697   1.381       .  S
C1680      F1698   1.385       .  S
C1682      F1693   1.385       .  S
C1682      F1694   1.383       .  S
C1682      F1695   1.383       .  S
C1684      C1685   1.396       .  A
C1684      C1689   1.530       .  S
C1685      C1686   1.407   1_545  A
C1685      H1690   1.074       .  S
C1686      C2255   1.426       .  A
C1687      C2254   1.427       .  A
C1687      C1688   1.407       .  A
C1687      C1691   1.510       .  S
C1688      C2247   1.395       .  A
C1688      H1692   1.083       .  S
C1689      F1702   1.381       .  S
C1689      F1703   1.381       .  S
C1689      F1704   1.381       .  S
C1691      F1699   1.385       .  S
C1691      F1700   1.377       .  S
C1691      F1701   1.380       .  S
C1705      H1706   1.101       .  S
C1705      C1711   1.547       .  S
C1705      C1710   1.532       .  S
C1707      H1708   1.106       .  S
C1709      C1712   1.368       .  D
C1709      C2085   1.492       .  S
C1710      C1713   1.373       .  D
C1710      C2117   1.491       .  S
C1711      C1714   1.393       .  D
C1711      C2149   1.512       .  S
C1712      C2190   1.496       .  S
C1713      C2213   1.496       .  S
C1714      C2254   1.516       .  S
Zn1715     O1719   1.947       .  S
Zn1715     O1720   2.014       .  S
Zn1715     O1724   2.008   1_556  S
Zn1715     O1731   2.053       .  S
Zn1716     O1719   1.941       .  S
Zn1716     O1721   2.017   1_556  S
Zn1716     O1723   2.038       .  S
Zn1716     O1727   2.001       .  S
Zn1717     O1719   1.957   1_554  S
Zn1717     O1722   2.007       .  S
Zn1717     O1725   2.015       .  S
Zn1717     O1728   2.008       .  S
Zn1718     O1719   1.944       .  S
Zn1718     O1726   2.015   1_556  S
Zn1718     O1729   2.044       .  S
Zn1718     O1730   2.004       .  S
O1720      C1732   1.274       .  A
O1721      C1733   1.273       .  A
O1722      C1734   1.273       .  A
O1723      C1732   1.276       .  A
O1724      C1734   1.272       .  A
O1725      C1733   1.272       .  A
O1726      C1735   1.273       .  A
O1727      C1736   1.272       .  A
O1728      C1735   1.272       .  A
O1729      C1736   1.277       .  A
O1730      C1737   1.272       .  A
O1731      C1737   1.278       .  A
C1732      C1787   1.466       .  S
C1733      C1793   1.464       .  S
C1734      C1781   1.459       .  S
C1735      C1769   1.462       .  S
C1736      C1777   1.463       .  S
C1737      C1742   1.468       .  S
C1738      C2094   1.465       .  S
C1738      N1739   1.356       .  A
C1738      N1743   1.363       .  A
N1739      C1740   1.352       .  A
C1740      C1761   1.464       .  S
C1740      N1741   1.358       .  A
N1741      C1742   1.360       .  A
C1742      N1743   1.359       .  A
Zn1744     O1748   1.946   1_554  S
Zn1744     O1749   2.013   1_554  S
Zn1744     O1753   1.980       .  S
Zn1744     O1760   2.031       .  S
Zn1745     O1748   1.959       .  S
Zn1745     O1750   2.035       .  S
Zn1745     O1752   2.022       .  S
Zn1745     O1756   2.040       .  S
Zn1746     O1748   1.946   1_554  S
Zn1746     O1751   2.044       .  S
Zn1746     O1754   2.008   1_554  S
Zn1746     O1757   2.004       .  S
Zn1747     O1748   1.937   1_554  S
Zn1747     O1755   2.053       .  S
Zn1747     O1758   2.029   1_554  S
Zn1747     O1759   2.008       .  S
O1749      C1761   1.273       .  A
O1750      C1762   1.276       .  A
O1751      C1763   1.276       .  A
O1752      C1761   1.275       .  A
O1753      C1763   1.268       .  A
O1754      C1762   1.272       .  A
O1755      C1764   1.278       .  A
O1756      C1765   1.275       .  A
O1757      C1764   1.272       .  A
O1758      C1765   1.276       .  A
O1759      C1766   1.273       .  A
O1760      C1766   1.275       .  A
C1762      C1789   1.466       .  S
C1763      C1771   1.458       .  S
C1764      C1783   1.466       .  S
C1765      C1775   1.475       .  S
C1766      C1795   1.460       .  S
C1767      C2062   1.471       .  S
C1767      N1768   1.359       .  A
C1767      N1772   1.359       .  A
N1768      C1769   1.354       .  A
C1769      N1770   1.356       .  A
N1770      C1771   1.357       .  A
C1771      N1772   1.355       .  A
C1773      C2158   1.481       .  S
C1773      N1778   1.362       .  A
N1774      C1775   1.361       .  A
N1776      C1777   1.356       .  A
C1777      N1778   1.356       .  A
C1779      C2021   1.465       .  S
C1779      N1780   1.356   1_455  A
N1780      C1781   1.352       .  A
C1781      N1782   1.356   1_655  A
C1783      N1784   1.359       .  A
C1785      C2126   1.459       .  S
C1785      N1790   1.359       .  A
N1786      C1787   1.356       .  A
N1788      C1789   1.359       .  A
C1789      N1790   1.355       .  A
C1791      C1998   1.481       .  S
C1791      N1796   1.363   1_545  A
N1792      C1793   1.357       .  A
N1794      C1795   1.353   1_545  A
C1795      N1796   1.359       .  A
Zn1797     O1801   1.951       .  S
Zn1797     O1802   2.071       .  S
Zn1797     O1806   2.033       .  S
Zn1797     O1813   2.019       .  S
Zn1798     O1801   1.947       .  S
Zn1798     O1803   2.017       .  S
Zn1798     O1805   1.994       .  S
Zn1798     O1809   2.043       .  S
Zn1799     O1801   1.974       .  S
Zn1799     O1804   2.035       .  S
Zn1799     O1807   2.034       .  S
Zn1799     O1810   2.022       .  S
Zn1800     O1801   1.952       .  S
Zn1800     O1808   2.018       .  S
Zn1800     O1811   2.018       .  S
Zn1800     O1812   2.054       .  S
O1802      C1814   1.280       .  A
O1803      C1815   1.274       .  A
O1804      C1816   1.275       .  A
O1805      C1814   1.271       .  A
O1806      C1816   1.276       .  A
O1807      C1815   1.275       .  A
O1808      C1817   1.274       .  A
O1809      C1818   1.276       .  A
O1810      C1817   1.274       .  A
O1811      C1818   1.274       .  A
O1812      C1819   1.278       .  A
O1813      C1819   1.274       .  A
C1814      C1859   1.468       .  S
C1815      C1865   1.469       .  S
C1816      C1875   1.474       .  S
C1817      C1869   1.467       .  S
C1818      C1824   1.469       .  S
C1819      C1853   1.471       .  S
C1820      C2181   1.488       .  S
C1820      N1821   1.362       .  A
C1820      N1825   1.364       .  A
N1821      C1822   1.353       .  A
C1822      C1846   1.463       .  S
C1822      N1823   1.356       .  A
N1823      C1824   1.356       .  A
C1824      N1825   1.360       .  A
Zn1826     O1830   1.936       .  S
Zn1826     O1831   2.013       .  S
Zn1826     O1835   2.007       .  S
Zn1826     O1842   2.031       .  S
Zn1827     O1830   1.940       .  S
Zn1827     O1832   1.983       .  S
Zn1827     O1834   2.032       .  S
Zn1827     O1838   1.987       .  S
Zn1828     O1830   1.959       .  S
Zn1828     O1833   2.039       .  S
Zn1828     O1836   2.018       .  S
Zn1828     O1839   2.045       .  S
Zn1829     O1830   1.934       .  S
Zn1829     O1837   1.989       .  S
Zn1829     O1840   2.031       .  S
Zn1829     O1841   1.975       .  S
O1831      C1843   1.273       .  A
O1832      C1844   1.270       .  A
O1833      C1845   1.276       .  A
O1834      C1843   1.275       .  A
O1835      C1845   1.273       .  A
O1836      C1844   1.275       .  A
O1837      C1846   1.270       .  A
O1838      C1847   1.269       .  A
O1839      C1846   1.276       .  A
O1840      C1847   1.274       .  A
O1841      C1848   1.270       .  A
O1842      C1848   1.276       .  A
C1843      C1863   1.465       .  S
C1844      C1851   1.454       .  S
C1845      C1857   1.471       .  S
C1847      C1877   1.458       .  S
C1848      C1871   1.451       .  S
C1849      C2245   1.473       .  S
C1849      N1854   1.366       .  A
N1850      C1851   1.348       .  A
N1852      C1853   1.359       .  A
C1853      N1854   1.361       .  A
C1855      C2222   1.488       .  S
C1855      N1856   1.365       .  A
N1856      C1857   1.359       .  A
C1857      N1858   1.358       .  A
C1859      N1860   1.357       .  A
C1861      C1957   1.472       .  S
C1861      N1866   1.362       .  A
N1862      C1863   1.357       .  A
N1864      C1865   1.357       .  A
C1865      N1866   1.359       .  A
C1867      C1925   1.461       .  S
C1867      N1868   1.360       .  A
C1867      N1872   1.354       .  A
N1868      C1869   1.359       .  A
C1869      N1870   1.358       .  A
N1870      C1871   1.356       .  A
C1871      N1872   1.350       .  A
C1873      C1893   1.474       .  S
C1873      N1878   1.358       .  A
N1874      C1875   1.363       .  A
N1876      C1877   1.355       .  A
C1877      N1878   1.351       .  A
C1879      H1880   1.107       .  S
C1879      C1885   1.540       .  S
C1881      H1882   1.107       .  S
C1881      C1888   1.556       .  S
C1883      C1989   1.493       .  S
C1884      C1887   1.367       .  D
C1885      C1888   1.382       .  D
C1885      C2053   1.513       .  S
C1886      C1902   1.499       .  S
C1888      C1934   1.494       .  S
C1889      C1894   1.409       .  A
C1889      H1899   1.083       .  S
C1890      C1895   1.477       .  S
C1890      C1891   1.415       .  A
C1891      C1892   1.400       .  A
C1891      C1896   1.519       .  S
C1892      C1893   1.402       .  A
C1892      H1897   1.083       .  S
C1894      C1898   1.517       .  S
C1895      C1900   1.413       .  A
C1896      F1912   1.382       .  S
C1896      F1913   1.378       .  S
C1896      F1914   1.385       .  S
C1898      F1909   1.385       .  S
C1898      F1910   1.382       .  S
C1898      F1911   1.384       .  S
C1900      C1901   1.412       .  A
C1900      C1905   1.516       .  S
C1901      C1902   1.410       .  A
C1901      H1906   1.082       .  S
C1903      C1904   1.393       .  A
C1903      C1907   1.513       .  S
C1904      H1908   1.086       .  S
C1905      F1918   1.384       .  S
C1905      F1919   1.382       .  S
C1905      F1920   1.380       .  S
C1907      F1915   1.385       .  S
C1907      F1917   1.382   1_655  S
C1921      C1922   1.403       .  A
C1921      C1926   1.396       .  A
C1921      H1931   1.083       .  S
C1922      C1927   1.475       .  S
C1922      C1923   1.412       .  A
C1923      C1924   1.408       .  A
C1923      C1928   1.515       .  S
C1924      C1925   1.404       .  A
C1924      H1929   1.083       .  S
C1925      C1926   1.411       .  A
C1926      C1930   1.520       .  S
C1927      C1932   1.408       .  A
C1927      C1936   1.402       .  A
C1928      F1944   1.382       .  S
C1928      F1945   1.383       .  S
C1928      F1946   1.385       .  S
C1930      F1941   1.385       .  S
C1930      F1942   1.382       .  S
C1930      F1943   1.384       .  S
C1932      C1933   1.390       .  A
C1932      C1937   1.519       .  S
C1933      C1934   1.400       .  A
C1933      H1938   1.074       .  S
C1934      C1935   1.429       .  A
C1935      C1936   1.411       .  A
C1935      C1939   1.518       .  S
C1936      H1940   1.084       .  S
C1937      F1950   1.384       .  S
C1937      F1951   1.383       .  S
C1937      F1952   1.383       .  S
C1939      F1947   1.383       .  S
C1939      F1949   1.384       .  S
C1953      C1958   1.404       .  A
C1953      H1963   1.084       .  S
C1954      C1959   1.485       .  S
C1954      C1955   1.418       .  A
C1955      C1956   1.410       .  A
C1955      C1960   1.519       .  S
C1956      C1957   1.402       .  A
C1956      H1961   1.083       .  S
C1958      C1962   1.518       .  S
C1959      C1964   1.415       .  A
C1960      F1976   1.382   1_655  S
C1960      F1977   1.382       .  S
C1960      F1978   1.384       .  S
C1962      F1973   1.383       .  S
C1962      F1974   1.385       .  S
C1962      F1975   1.382       .  S
C1964      C1965   1.406       .  A
C1964      C1969   1.518       .  S
C1965      C1966   1.404       .  A
C1965      H1970   1.083       .  S
C1967      C1968   1.411       .  A
C1967      C1971   1.517       .  S
C1968      H1972   1.083       .  S
C1969      F1982   1.385       .  S
C1969      F1984   1.382       .  S
C1971      F1979   1.377       .  S
C1971      F1980   1.373       .  S
C1985      C1990   1.407       .  A
C1985      H1995   1.083       .  S
C1986      C1991   1.484       .  S
C1986      C1987   1.411       .  A
C1987      C1988   1.403       .  A
C1987      C1992   1.516       .  S
C1988      H1993   1.083       .  S
C1989      C1990   1.426       .  A
C1990      C1994   1.521       .  S
C1991      C1996   1.413       .  A
C1992      F2008   1.382       .  S
C1992      F2009   1.381       .  S
C1992      F2010   1.384       .  S
C1994      F2005   1.380       .  S
C1994      F2006   1.384       .  S
C1994      F2007   1.375       .  S
C1996      C1997   1.413       .  A
C1996      C2001   1.519       .  S
C1997      C1998   1.408   1_565  A
C1997      H2002   1.083       .  S
C1999      C2000   1.402       .  A
C1999      C2003   1.520       .  S
C2000      H2004   1.082       .  S
C2001      F2014   1.384       .  S
C2001      F2015   1.382       .  S
C2001      F2016   1.382       .  S
C2003      F2011   1.383       .  S
C2003      F2012   1.383       .  S
C2003      F2013   1.385       .  S
C2017      C2022   1.406       .  A
C2017      H2027   1.083       .  S
C2018      C2023   1.476       .  S
C2018      C2019   1.417       .  A
C2019      C2020   1.400       .  A
C2019      C2024   1.517       .  S
C2020      C2021   1.397   1_655  A
C2020      H2025   1.084       .  S
C2022      C2026   1.516       .  S
C2023      C2028   1.414       .  A
C2024      F2040   1.382       .  S
C2024      F2041   1.375       .  S
C2024      F2042   1.385       .  S
C2026      F2037   1.384       .  S
C2026      F2038   1.383       .  S
C2026      F2039   1.383       .  S
C2028      C2029   1.414       .  A
C2028      C2033   1.516       .  S
C2029      C2030   1.407   1_655  A
C2029      H2034   1.083       .  S
C2031      C2032   1.392       .  A
C2031      C2035   1.510       .  S
C2032      H2036   1.086       .  S
C2033      F2046   1.384       .  S
C2033      F2047   1.383       .  S
C2033      F2048   1.381       .  S
C2035      F2043   1.385       .  S
C2035      F2045   1.378   1_565  S
C2049      C2050   1.392       .  A
C2049      C2054   1.397       .  A
C2049      H2059   1.086       .  S
C2050      C2055   1.477       .  S
C2050      C2051   1.410       .  A
C2051      C2052   1.410       .  A
C2051      C2056   1.517       .  S
C2052      C2053   1.414       .  A
C2052      H2057   1.078       .  S
C2053      C2054   1.429       .  A
C2054      C2058   1.513       .  S
C2055      C2060   1.416       .  A
C2055      C2064   1.403       .  A
C2056      F2072   1.383       .  S
C2056      F2073   1.382       .  S
C2056      F2074   1.384       .  S
C2058      F2069   1.385       .  S
C2058      F2070   1.367       .  S
C2060      C2061   1.398       .  A
C2060      C2065   1.517       .  S
C2061      C2062   1.400       .  A
C2061      H2066   1.083       .  S
C2062      C2063   1.417       .  A
C2063      C2064   1.406       .  A
C2063      C2067   1.518       .  S
C2064      H2068   1.083       .  S
C2065      F2078   1.385       .  S
C2065      F2079   1.382       .  S
C2065      F2080   1.381       .  S
C2067      F2075   1.382       .  S
C2067      F2076   1.384       .  S
C2067      F2077   1.385       .  S
C2081      C2082   1.403       .  A
C2081      C2086   1.410       .  A
C2081      H2091   1.083       .  S
C2082      C2087   1.483       .  S
C2082      C2083   1.413       .  A
C2083      C2084   1.402       .  A
C2083      C2088   1.520       .  S
C2084      C2085   1.398       .  A
C2084      H2089   1.075       .  S
C2085      C2086   1.417       .  A
C2086      C2090   1.516       .  S
C2087      C2092   1.420       .  A
C2087      C2096   1.404       .  A
C2088      F2104   1.382       .  S
C2088      F2105   1.383       .  S
C2088      F2106   1.383       .  S
C2090      F2101   1.384       .  S
C2090      F2102   1.381       .  S
C2090      F2103   1.376   1_565  S
C2092      C2093   1.401       .  A
C2092      C2097   1.521       .  S
C2093      C2094   1.397       .  A
C2093      H2098   1.084       .  S
C2094      C2095   1.416       .  A
C2095      C2096   1.407       .  A
C2095      C2099   1.519       .  S
C2096      H2100   1.084       .  S
C2097      F2110   1.384       .  S
C2097      F2111   1.381       .  S
C2097      F2112   1.379       .  S
C2099      F2107   1.384       .  S
C2099      F2108   1.383       .  S
C2099      F2109   1.382       .  S
C2113      C2114   1.394       .  A
C2113      C2118   1.399       .  A
C2113      H2123   1.085       .  S
C2114      C2119   1.469       .  S
C2115      C2116   1.404       .  A
C2115      C2120   1.521       .  S
C2116      H2121   1.078       .  S
C2117      C2118   1.420       .  A
C2118      C2122   1.508       .  S
C2119      C2124   1.416       .  A
C2120      F2136   1.382       .  S
C2120      F2138   1.384       .  S
C2122      F2133   1.385       .  S
C2122      F2135   1.374       .  S
C2124      C2125   1.398       .  A
C2124      C2129   1.521       .  S
C2125      C2126   1.397       .  A
C2125      H2130   1.084       .  S
C2127      C2128   1.409       .  A
C2127      C2131   1.519       .  S
C2128      H2132   1.083       .  S
C2129      F2142   1.384       .  S
C2129      F2143   1.381       .  S
C2129      F2144   1.382       .  S
C2131      F2139   1.384       .  S
C2131      F2140   1.384       .  S
C2131      F2141   1.382       .  S
C2145      C2150   1.404       .  A
C2145      H2155   1.084       .  S
C2146      C2151   1.480       .  S
C2146      C2147   1.409       .  A
C2147      C2148   1.412       .  A
C2147      C2152   1.515       .  S
C2148      C2149   1.414       .  A
C2148      H2153   1.081       .  S
C2150      C2154   1.520       .  S
C2151      C2156   1.416       .  A
C2152      F2168   1.383       .  S
C2152      F2169   1.382       .  S
C2152      F2170   1.384       .  S
C2154      F2165   1.372       .  S
C2154      F2166   1.386       .  S
C2156      C2157   1.403       .  A
C2156      C2161   1.521       .  S
C2157      C2158   1.402       .  A
C2157      H2162   1.083       .  S
C2159      C2160   1.412       .  A
C2159      C2163   1.518       .  S
C2160      H2164   1.083       .  S
C2161      F2174   1.384       .  S
C2161      F2175   1.382       .  S
C2161      F2176   1.381       .  S
C2163      F2171   1.381       .  S
C2163      F2172   1.383       .  S
C2163      F2173   1.385       .  S
C2177      C2178   1.402       .  A
C2177      C2182   1.408       .  A
C2177      H2187   1.083       .  S
C2178      C2183   1.482       .  S
C2178      C2179   1.414       .  A
C2179      C2180   1.404       .  A
C2179      C2184   1.522       .  S
C2180      C2181   1.407       .  A
C2180      H2185   1.083       .  S
C2181      C2182   1.422       .  A
C2182      C2186   1.520       .  S
C2183      C2188   1.413       .  A
C2183      C2192   1.400       .  A
C2184      F2200   1.381       .  S
C2184      F2201   1.382       .  S
C2184      F2202   1.385       .  S
C2186      F2197   1.383       .  S
C2186      F2198   1.385       .  S
C2186      F2199   1.383       .  S
C2188      C2189   1.403       .  A
C2188      C2193   1.519       .  S
C2189      C2190   1.405       .  A
C2189      H2194   1.074       .  S
C2190      C2191   1.420       .  A
C2191      C2192   1.403       .  A
C2191      C2195   1.512   1_565  S
C2192      H2196   1.085       .  S
C2193      F2206   1.385       .  S
C2193      F2207   1.382       .  S
C2193      F2208   1.382       .  S
C2195      F2203   1.382       .  S
C2195      F2205   1.384       .  S
C2209      C2210   1.398       .  A
C2209      C2214   1.399       .  A
C2209      H2219   1.084       .  S
C2210      C2215   1.486       .  S
C2211      C2212   1.401   1_655  A
C2211      C2216   1.517       .  S
C2212      H2217   1.080   1_455  S
C2213      C2214   1.422       .  A
C2214      C2218   1.513       .  S
C2215      C2220   1.415       .  A
C2216      F2232   1.381       .  S
C2216      F2233   1.383       .  S
C2216      F2234   1.385       .  S
C2218      F2229   1.383       .  S
C2218      F2230   1.378       .  S
C2218      F2231   1.375       .  S
C2220      C2221   1.403       .  A
C2220      C2225   1.516       .  S
C2221      C2222   1.406       .  A
C2221      H2226   1.084       .  S
C2223      C2224   1.401       .  A
C2223      C2227   1.521       .  S
C2224      H2228   1.082       .  S
C2225      F2238   1.384       .  S
C2225      F2239   1.383       .  S
C2225      F2240   1.383       .  S
C2227      F2235   1.385       .  S
C2227      F2236   1.383       .  S
C2227      F2237   1.383       .  S
C2241      C2246   1.399       .  A
C2241      H2251   1.084       .  S
C2242      C2247   1.471       .  S
C2242      C2243   1.408       .  A
C2243      C2244   1.404       .  A
C2243      C2248   1.516       .  S
C2244      C2245   1.405       .  A
C2244      H2249   1.083       .  S
C2246      C2250   1.523       .  S
C2247      C2252   1.408       .  A
C2248      F2264   1.383       .  S
C2248      F2265   1.382       .  S
C2248      F2266   1.384       .  S
C2250      F2261   1.385       .  S
C2250      F2262   1.382       .  S
C2250      F2263   1.384       .  S
C2252      C2253   1.401       .  A
C2252      C2257   1.528       .  S
C2253      C2254   1.412       .  A
C2253      H2258   1.060       .  S
C2255      C2256   1.408       .  A
C2255      C2259   1.513       .  S
C2256      H2260   1.086       .  S
C2257      F2270   1.380       .  S
C2257      F2271   1.382       .  S
C2257      F2272   1.382       .  S
C2259      F2267   1.385       .  S
C2259      F2268   1.377       .  S
C2259      F2269   1.381       .  S
