geometry optimzed in LAMMPS
_audit_creation_date              2020-11-30 
_audit_creation_method            'lammps2cif' 
_symmetry_space_group_name_H-M    'P1' 
_symmetry_Int_Tables_number       1 
_symmetry_cell_setting            triclinic 
loop_ 
_symmetry_equiv_pos_as_xyz 
  x,y,z 
_cell_length_a                    26.1831992 
_cell_length_b                    26.181717366681294 
_cell_length_c                    61.45068416100085 
_cell_angle_alpha                 89.91660944724634 
_cell_angle_beta                  90.01328531224551 
_cell_angle_gamma                 90.01817100299601 
loop_ 
_atom_site_label 
_atom_site_type_symbol 
_atom_site_fract_x 
_atom_site_fract_y 
_atom_site_fract_z 
_atom_site_charge 
O1          O  0.46538167  0.49793894  0.65568590    -0.71400
O2          O  0.47259956  0.00101234  0.71701195    -0.71600
O3          O  0.47043664  0.07217874  0.68563714    -0.71400
O4          O  0.46994638  0.42671740  0.68691988    -0.71400
O5          O  0.05359369  0.42413176  0.68509522    -0.71400
O6          O  0.05412398  0.06847621  0.68444761    -0.71400
O7          O  0.05629107  0.49726088  0.71573808    -0.71400
O8          O  0.04851309  0.99588191  0.65348907    -0.71500
V9          V  0.47129827  0.99948376  0.68632195     1.35200
V10         V  0.05170425  0.99630054  0.68467594     1.35200
C11         C  0.50501279  0.49750965  0.64411952     0.77900
C12         C  0.01580803  0.99799711  0.72685146     0.77900
C13         C  0.51229353  0.09637944  0.68481322     0.77800
C14         C  0.51168583  0.40228129  0.68629864     0.77800
O15         O  0.06844773  0.24739248  0.65829903    -0.71400
O16         O  0.04379790  0.24501981  0.71893105    -0.71600
O17         O  0.05524371  0.17356524  0.68813728    -0.71400
O18         O  0.05488231  0.31909056  0.68888344    -0.71400
O19         O  0.47184410  0.32143843  0.68351205    -0.71400
O20         O  0.47256944  0.17700460  0.68186917    -0.71400
O21         O  0.46094487  0.24651967  0.71326280    -0.71400
O22         O  0.48551465  0.25109446  0.65203717    -0.71500
V23         V  0.05397807  0.24632215  0.68848419     1.35200
V24         V  0.47431960  0.24916235  0.68273532     1.35200
C25         C  0.53083738  0.25095488  0.64469365     0.77900
C26         C  0.49836043  0.24534207  0.72629371     0.77900
C27         C  0.51326140  0.15221180  0.68474641     0.77800
C28         C  0.51253893  0.34633760  0.68632054     0.77800
O29         O  0.21179072  0.49847765  0.65438570    -0.71400
O30         O  0.21232571  0.99999644  0.71660589    -0.71600
O31         O  0.21155262  0.07152068  0.68509078    -0.71400
O32         O  0.21123242  0.42680772  0.68587359    -0.71400
O33         O  0.29427108  0.42654182  0.68619843    -0.71400
O34         O  0.29460455  0.07166087  0.68482505    -0.71400
O35         O  0.29512072  0.50079014  0.71626678    -0.71400
O36         O  0.29481024  0.99779153  0.65469027    -0.71500
V37         V  0.21318743  0.49921908  0.68546455     1.35200
V38         V  0.29298832  0.49914966  0.68547295     1.35200
C39         C  0.25363082  0.49803483  0.64401601     0.77900
C40         C  0.25423597  0.00064255  0.72689986     0.77900
C41         C  0.25297346  0.09615969  0.68472295     0.77800
C42         C  0.25260034  0.40205865  0.68617693     0.77800
O43         O  0.21508899  0.25085144  0.65336670    -0.71400
O44         O  0.20590208  0.24653868  0.71497530    -0.71600
O45         O  0.21068983  0.32156503  0.68494716    -0.71400
O46         O  0.21100747  0.17642668  0.68349994    -0.71400
O47         O  0.29393894  0.17671128  0.68543909    -0.71400
O48         O  0.29356299  0.32141015  0.68721408    -0.71400
O49         O  0.28882619  0.24621689  0.71718279    -0.71400
O50         O  0.29793507  0.25132519  0.65540700    -0.71500
V51         V  0.21228241  0.24895442  0.68421851     1.35200
V52         V  0.29193835  0.24902208  0.68627809     1.35200
C53         C  0.25793263  0.25157764  0.64387025     0.77900
C54         C  0.24577891  0.24446693  0.72647450     0.77900
C55         C  0.25221774  0.34610427  0.68620564     0.77800
C56         C  0.25261421  0.15199681  0.68444812     0.77800
O57         O  0.00643473  0.04100809  0.82264435    -0.71400
O58         O  0.51361412  0.04324862  0.76099259    -0.71600
O59         O  0.43768843  0.04322251  0.79073691    -0.71400
O60         O  0.08247497  0.04102829  0.79317922    -0.71400
O61         O  0.08224708  0.45922626  0.79346122    -0.71400
O62         O  0.43723078  0.46138663  0.79072201    -0.71400
O63         O  0.01395654  0.45823218  0.76117980    -0.71400
O64         O  0.50675603  0.46118968  0.82269023    -0.71500
V65         V  0.01023977  0.03920611  0.79174294     1.35200
V66         V  0.00986419  0.46068002  0.79196982     1.35200
C67         C  0.00488579  0.99944736  0.83316796     0.77900
C68         C  0.01603921  0.99865377  0.75056347     0.77900
C69         C  0.41300952  0.00171232  0.79059688     0.77800
C70         C  0.10712154  0.99959748  0.79346681     0.77800
O71         O  0.49095382  0.17728341  0.81940134    -0.71400
O72         O  0.99069748  0.19337199  0.75840850    -0.71600
O73         O  0.06288647  0.18517109  0.78917647    -0.71400
O74         O  0.41805266  0.18605366  0.78887643    -0.71400
O75         O  0.41799998  0.26858073  0.79282578    -0.71400
O76         O  0.06304084  0.26768744  0.79313774    -0.71400
O77         O  0.49086764  0.27758088  0.76215266    -0.71400
O78         O  0.99015317  0.25967472  0.82360898    -0.71500
V79         V  0.49050411  0.18781595  0.78875686     1.35200
V80         V  0.49044722  0.26704680  0.79277437     1.35200
C81         C  0.49090607  0.21552660  0.83191964     0.77900
C82         C  0.49145612  0.23924731  0.74970777     0.77900
C83         C  0.08756970  0.22643192  0.79112925     0.77800
C84         C  0.39345515  0.22727306  0.79094848     0.77800
O85         O  0.26063941  0.04212976  0.82301922    -0.71400
O86         O  0.25736084  0.04242517  0.76110075    -0.71600
O87         O  0.18706828  0.04171167  0.79280997    -0.71400
O88         O  0.33204674  0.04292071  0.79131670    -0.71400
O89         O  0.33212407  0.46107743  0.79088947    -0.71400
O90         O  0.18728675  0.45987026  0.79327128    -0.71400
O91         O  0.25651831  0.46018470  0.76119776    -0.71400
O92         O  0.26213899  0.46064019  0.82293616    -0.71500
V93         V  0.25942989  0.04070662  0.79205784     1.35200
V94         V  0.25961882  0.46209491  0.79206946     1.35200
C95         C  0.26112314  0.00046056  0.83348566     0.77900
C96         C  0.25574856  0.00087308  0.75067398     0.77900
C97         C  0.16287022  0.99997712  0.79330714     0.77800
C98         C  0.35695331  0.00156268  0.79080536     0.77800
O99         O  0.24032283  0.17746887  0.81989258    -0.71400
O100        O  0.24151951  0.19423642  0.75841704    -0.71600
O101        O  0.31311655  0.18584685  0.78929883    -0.71400
O102        O  0.16821707  0.18547605  0.78895373    -0.71400
O103        O  0.16798748  0.26796223  0.79302057    -0.71400
O104        O  0.31298326  0.26840689  0.79313232    -0.71400
O105        O  0.24104549  0.27678852  0.76238427    -0.71400
O106        O  0.24046140  0.25996413  0.82373495    -0.71500
V107        V  0.24070442  0.18735819  0.78920812     1.35200
V108        V  0.24052212  0.26665870  0.79300086     1.35200
C109        C  0.24062193  0.21598672  0.83227101     0.77900
C110        C  0.24232163  0.23834321  0.75003083     0.77900
C111        C  0.33761953  0.22717761  0.79115133     0.77800
C112        C  0.14349469  0.22660702  0.79103180     0.77800
O113        O  0.47012430  0.98155758  0.32142539    -0.71400
O114        O  0.46980728  0.48943421  0.26043464    -0.71600
O115        O  0.47200886  0.41227335  0.28947552    -0.71400
O116        O  0.47205421  0.05795001  0.29248726    -0.71400
O117        O  0.06490981  0.06665347  0.28918269    -0.71400
O118        O  0.06417252  0.42172745  0.28727851    -0.71400
O119        O  0.05501681  0.99678521  0.25752641    -0.71400
O120        O  0.07412109  0.49210141  0.31892288    -0.71500
V121        V  0.47269134  0.48519639  0.29095525     1.35200
V122        V  0.06281943  0.49429801  0.28828439     1.35200
C123        C  0.51064570  0.48221679  0.33233702     0.77900
C124        C  0.01027029  0.49790216  0.24939710     0.77900
C125        C  0.02299654  0.39704707  0.28956389     0.77800
C126        C  0.02374862  0.09112311  0.29167759     0.77800
O127        O  0.07326705  0.24640547  0.31960558    -0.71400
O128        O  0.05536561  0.24070259  0.25821523    -0.71600
O129        O  0.06418672  0.31633154  0.28772887    -0.71400
O130        O  0.06488977  0.17149716  0.28991642    -0.71400
O131        O  0.47499870  0.16295080  0.29475945    -0.71400
O132        O  0.47480015  0.30705193  0.29234738    -0.71400
O133        O  0.46588181  0.23194250  0.26275282    -0.71400
O134        O  0.48730545  0.23781041  0.32434013    -0.71500
V135        V  0.06283338  0.24380389  0.28895363     1.35200
V136        V  0.47733859  0.23493365  0.29349650     1.35200
C137        C  0.53244782  0.23861612  0.33196135     0.77900
C138        C  0.50419647  0.23043533  0.25015633     0.77900
C139        C  0.51541509  0.33199056  0.28959531     0.77800
C140        C  0.51561595  0.13787814  0.29245660     0.77800
O141        O  0.20454471  0.00812628  0.32287792    -0.71400
O142        O  0.19799255  0.50556706  0.26043151    -0.71600
O143        O  0.19963167  0.43505406  0.29202115    -0.71400
O144        O  0.19927062  0.07918265  0.29103885    -0.71400
O145        O  0.28226271  0.08020716  0.28995053    -0.71400
O146        O  0.28260133  0.43450024  0.29042840    -0.71400
O147        O  0.28131035  0.00632089  0.25961313    -0.71400
O148        O  0.28732870  0.50787501  0.32069170    -0.71500
V149        V  0.20184232  0.50705787  0.29161179     1.35200
V150        V  0.28156097  0.50734937  0.29018045     1.35200
C151        C  0.24781080  0.50792513  0.33228126     0.77900
C152        C  0.23922822  0.50494979  0.24955869     0.77900
C153        C  0.24070817  0.41021794  0.29116679     0.77800
C154        C  0.24024602  0.10431608  0.29043107     0.77800
O155        O  0.26928638  0.25716646  0.32380876    -0.71400
O156        O  0.28724720  0.25702400  0.26187632    -0.71600
O157        O  0.28014536  0.32935948  0.29282198    -0.71400
O158        O  0.27964384  0.18516299  0.29282179    -0.71400
O159        O  0.19725042  0.18462334  0.28842346    -0.71400
O160        O  0.19758366  0.33035620  0.28899139    -0.71400
O161        O  0.20465022  0.25825078  0.25814749    -0.71400
O162        O  0.18707961  0.25690296  0.31902326    -0.71500
V163        V  0.27750398  0.25728061  0.29278178     1.35200
V164        V  0.19829200  0.25757609  0.28871312     1.35200
C165        C  0.22452401  0.25678819  0.33183584     0.77900
C166        C  0.24828880  0.25700968  0.24960304     0.77900
C167        C  0.23935487  0.35441627  0.29098367     0.77800
C168        C  0.23886467  0.16027198  0.29050823     0.77800
O169        O  0.49286627  0.49251050  0.40241114    -0.71400
O170        O  0.47973998  0.99513435  0.46461011    -0.71600
O171        O  0.48516333  0.06625744  0.43305162    -0.71400
O172        O  0.48510970  0.42177007  0.43400405    -0.71400
O173        O  0.05444460  0.42599174  0.43437222    -0.71400
O174        O  0.05448419  0.07060504  0.43363311    -0.71400
O175        O  0.05606819  0.49928628  0.46498373    -0.71400
O176        O  0.05127884  0.99722827  0.40289615    -0.71500
V177        V  0.48725656  0.49397970  0.43351079     1.35200
V178        V  0.05246543  0.49828130  0.43399735     1.35200
C179        C  0.53686193  0.49262516  0.39364295     0.77900
C180        C  0.51982868  0.49484632  0.47618982     0.77900
C181        C  0.52620467  0.09112404  0.43477960     0.77800
C182        C  0.52629159  0.39699849  0.43512552     0.77800
O183        O  0.47633128  0.24444762  0.40608987    -0.71400
O184        O  0.48888828  0.24383939  0.46687612    -0.71600
O185        O  0.48383784  0.31679488  0.43654195    -0.71400
O186        O  0.48372016  0.17137039  0.43625975    -0.71400
O187        O  0.05541355  0.17574041  0.43368721    -0.71400
O188        O  0.05531501  0.32099528  0.43381612    -0.71400
O189        O  0.06102351  0.24834300  0.46475287    -0.71400
O190        O  0.05053935  0.24853449  0.40280706    -0.71500
V191        V  0.48494054  0.24410466  0.43642037     1.35200
V192        V  0.05403638  0.24838263  0.43379632     1.35200
C193        C  0.51476290  0.24381722  0.39386907     0.77900
C194        C  0.53150933  0.24445294  0.47636127     0.77900
C195        C  0.52549003  0.34114530  0.43507666     0.77800
C196        C  0.52539286  0.14701349  0.43498097     0.77800
O197        O  0.18233940  0.50397057  0.40550071    -0.71400
O198        O  0.18963534  0.00277275  0.46660342    -0.71600
O199        O  0.18759450  0.07620572  0.43616222    -0.71400
O200        O  0.18776503  0.43050432  0.43581707    -0.71400
O201        O  0.27071484  0.43132327  0.43419787    -0.71400
O202        O  0.27055987  0.07552239  0.43466645    -0.71400
O203        O  0.27274897  0.50274281  0.46564047    -0.71400
O204        O  0.26503734  0.00429253  0.40317094    -0.71500
V205        V  0.18861515  0.50335808  0.43600438     1.35200
V206        V  0.26829603  0.50343311  0.43440596     1.35200
C207        C  0.22172462  0.50456104  0.39383028     0.77900
C208        C  0.23164863  0.50253341  0.47662822     0.77900
C209        C  0.22950936  0.10044850  0.43542365     0.77800
C210        C  0.22968723  0.40632122  0.43502585     0.77800
O211        O  0.19849615  0.25363066  0.40243945    -0.71400
O212        O  0.18508184  0.25315218  0.46472017    -0.71600
O213        O  0.19006607  0.32547588  0.43361560    -0.71400
O214        O  0.18997829  0.18128678  0.43361190    -0.71400
O215        O  0.27268388  0.18050094  0.43679493    -0.71400
O216        O  0.27281798  0.32621725  0.43656220    -0.71400
O217        O  0.26788198  0.25339829  0.46724611    -0.71400
O218        O  0.28099801  0.25323312  0.40629766    -0.71500
V219        V  0.19245323  0.25338355  0.43362759     1.35200
V220        V  0.27190665  0.25334549  0.43667042     1.35200
C221        C  0.24278763  0.25359738  0.39391964     0.77900
C222        C  0.22500120  0.25307874  0.47647641     0.77900
C223        C  0.23101059  0.35043891  0.43507397     0.77800
C224        C  0.23085567  0.15631041  0.43530684     0.77800
O225        O  0.98876116  0.07472184  0.07179215    -0.71400
O226        O  0.49042983  0.07461839  0.01060333    -0.71600
O227        O  0.41729508  0.07447159  0.04125156    -0.71400
O228        O  0.06244886  0.07398125  0.04149496    -0.71400
O229        O  0.06292302  0.49246999  0.04148323    -0.71400
O230        O  0.41827598  0.49284397  0.04134132    -0.71400
O231        O  0.99138465  0.49282167  0.01010457    -0.71400
O232        O  0.49008437  0.49369003  0.07264684    -0.71500
V233        V  0.98993854  0.07268588  0.04099207     1.35200
V234        V  0.99047882  0.49441534  0.04112475     1.35200
C235        C  0.98881793  0.03365757  0.08251987     0.77900
C236        C  0.99141320  0.03291446  0.99967018     0.77900
C237        C  0.39284067  0.03285142  0.04129612     0.77800
C238        C  0.08692235  0.03237856  0.04163084     0.77800
O239        O  0.99684568  0.26342874  0.07335482    -0.71400
O240        O  0.49604652  0.27458282  0.01128011    -0.71600
O241        O  0.42431237  0.27071617  0.04248247    -0.71400
O242        O  0.06881616  0.26964399  0.04221585    -0.71400
O243        O  0.06919354  0.18680284  0.03995462    -0.71400
O244        O  0.42396101  0.18789273  0.04009848    -0.71400
O245        O  0.99628632  0.19071728  0.00924808    -0.71400
O246        O  0.49703474  0.18192959  0.07054141    -0.71500
V247        V  0.49651056  0.26872620  0.04230124     1.35200
V248        V  0.49673554  0.18914518  0.04001699     1.35200
C249        C  0.49730169  0.22090502  0.08246218     0.77900
C250        C  0.49615899  0.23431701  0.99981209     0.77900
C251        C  0.39953635  0.22956847  0.04127572     0.77800
C252        C  0.09359978  0.22852324  0.04108509     0.77800
O253        O  0.24027380  0.07306501  0.07261971    -0.71400
O254        O  0.23980561  0.07441705  0.01083894    -0.71600
O255        O  0.16744215  0.07368939  0.04178764    -0.71400
O256        O  0.31228074  0.07397418  0.04163547    -0.71400
O257        O  0.31323390  0.49240686  0.04108249    -0.71400
O258        O  0.16817971  0.49217727  0.04174845    -0.71400
O259        O  0.24006950  0.49288415  0.01044393    -0.71400
O260        O  0.24189351  0.49163966  0.07240572    -0.71500
V261        V  0.23988203  0.07213648  0.04172247     1.35200
V262        V  0.24075125  0.49385829  0.04142784     1.35200
C263        C  0.24165877  0.03146284  0.08305251     0.77900
C264        C  0.23986509  0.03322461  0.00015627     0.77900
C265        C  0.14283997  0.03220126  0.04178853     0.77800
C266        C  0.33698293  0.03257038  0.04132019     0.77800
O267        O  0.24618819  0.27685465  0.07079964    -0.71400
O268        O  0.24655423  0.26992039  0.00990336    -0.71600
O269        O  0.17364145  0.27154297  0.04031453    -0.71400
O270        O  0.31920008  0.27217492  0.04051384    -0.71400
O271        O  0.31888036  0.18921168  0.04195623    -0.71400
O272        O  0.17450539  0.18861686  0.04208460    -0.71400
O273        O  0.24646265  0.18694882  0.01079999    -0.71400
O274        O  0.24695331  0.19404586  0.07331482    -0.71500
V275        V  0.24640546  0.27087695  0.04040594     1.35200
V276        V  0.24669504  0.19118802  0.04203034     1.35200
C277        C  0.24668603  0.23753307  0.08251408     0.77900
C278        C  0.24636182  0.22813489  0.99985843     0.77900
C279        C  0.14948054  0.22963389  0.04114517     0.77800
C280        C  0.34363987  0.23042828  0.04124327     0.77800
O281        O  0.99469517  0.45643636  0.15367357    -0.71400
O282        O  0.50389354  0.45225231  0.21512231    -0.71600
O283        O  0.42552571  0.45395166  0.18628380    -0.71400
O284        O  0.06969060  0.45696212  0.18341245    -0.71400
O285        O  0.07051726  0.03885474  0.18264694    -0.71400
O286        O  0.42590163  0.03591614  0.18672944    -0.71400
O287        O  0.00230552  0.03973391  0.21514586    -0.71400
O288        O  0.49389732  0.03679606  0.15394849    -0.71500
V289        V  0.99730281  0.45891655  0.18446780     1.35200
V290        V  0.99828777  0.03763140  0.18409883     1.35200
C291        C  0.99377071  0.99605484  0.14290660     0.77900
C292        C  0.00327633  0.49886696  0.22571997     0.77900
C293        C  0.40077428  0.49555287  0.18674750     0.77800
C294        C  0.09442773  0.49841087  0.18280055     0.77800
O295        O  0.99849601  0.20370125  0.15330704    -0.71400
O296        O  0.50062297  0.19148429  0.21512756    -0.71600
O297        O  0.42819412  0.19483008  0.18429004    -0.71400
O298        O  0.07262048  0.19882398  0.18378467    -0.71400
O299        O  0.07386467  0.28176240  0.18551770    -0.71400
O300        O  0.42717031  0.27781384  0.18590465    -0.71400
O301        O  0.00213690  0.28078972  0.21645154    -0.71400
O302        O  0.50072699  0.28483194  0.15591686    -0.71500
V303        V  0.50032346  0.19770856  0.18411825     1.35200
V304        V  0.49965754  0.27732144  0.18642867     1.35200
C305        C  0.50019461  0.24583118  0.14398668     0.77900
C306        C  0.49925732  0.23173126  0.22654532     0.77900
C307        C  0.40319292  0.23587586  0.18508063     0.77800
C308        C  0.09783182  0.23970928  0.18477971     0.77800
O309        O  0.25079940  0.03464585  0.15302981    -0.71400
O310        O  0.24375995  0.04162643  0.21458206    -0.71600
O311        O  0.32057277  0.03691771  0.18531464    -0.71400
O312        O  0.17540972  0.03843187  0.18239753    -0.71400
O313        O  0.17432510  0.45661198  0.18372094    -0.71400
O314        O  0.31911578  0.45513069  0.18700763    -0.71400
O315        O  0.24187116  0.45948283  0.21624813    -0.71400
O316        O  0.25010838  0.45315639  0.15440684    -0.71500
V317        V  0.24779602  0.03626877  0.18385002     1.35200
V318        V  0.24651684  0.45770760  0.18532488     1.35200
C319        C  0.25063426  0.99221684  0.14323875     0.77900
C320        C  0.24021515  0.50217252  0.22583919     0.77900
C321        C  0.34443082  0.49623529  0.18655211     0.77800
C322        C  0.15016119  0.49824882  0.18280301     0.77800
O323        O  0.25054306  0.26364998  0.15173508    -0.71400
O324        O  0.25212692  0.28799122  0.21305230    -0.71600
O325        O  0.32323669  0.27596925  0.18219371    -0.71400
O326        O  0.17917312  0.27830518  0.18250031    -0.71400
O327        O  0.17739435  0.19626271  0.18800051    -0.71400
O328        O  0.32289456  0.19391570  0.18779128    -0.71400
O329        O  0.25107319  0.20585352  0.21837653    -0.71400
O330        O  0.24962035  0.18185387  0.15776096    -0.71500
V331        V  0.25128148  0.27487150  0.18244234     1.35200
V332        V  0.25023588  0.19609322  0.18791737     1.35200
C333        C  0.24975155  0.21831234  0.14439242     0.77900
C334        C  0.25201557  0.25043028  0.22606679     0.77900
C335        C  0.34755492  0.23502771  0.18500929     0.77800
C336        C  0.15369872  0.23796947  0.18512682     0.77800
O337        O  0.49351574  0.08023118  0.90431339    -0.71400
O338        O  0.99293133  0.07593023  0.96571898    -0.71600
O339        O  0.06587760  0.07795249  0.93494938    -0.71400
O340        O  0.42091164  0.07825093  0.93532032    -0.71400
O341        O  0.42146765  0.49686047  0.93434788    -0.71400
O342        O  0.06643490  0.49668797  0.93401219    -0.71400
O343        O  0.49366688  0.49471776  0.96526523    -0.71400
O344        O  0.99440989  0.49882184  0.90309890    -0.71500
V345        V  0.99341048  0.07634768  0.93483001     1.35200
V346        V  0.99394347  0.49835570  0.93398394     1.35200
C347        C  0.99470177  0.03908161  0.89303217     0.77900
C348        C  0.99250370  0.03382875  0.97582036     0.77900
C349        C  0.09046521  0.03646108  0.93441819     0.77800
C350        C  0.39630857  0.03674794  0.93503391     0.77800
O351        O  0.99479205  0.20146296  0.90280010    -0.71400
O352        O  0.49593102  0.19553023  0.96483158    -0.71600
O353        O  0.42312968  0.19723051  0.93401793    -0.71400
O354        O  0.06756162  0.19722955  0.93367331    -0.71400
O355        O  0.06815422  0.28014976  0.93553424    -0.71400
O356        O  0.42261947  0.28020335  0.93541666    -0.71400
O357        O  0.99543287  0.27798222  0.96622766    -0.71400
O358        O  0.49485542  0.28393575  0.90455687    -0.71500
V359        V  0.49540362  0.19944798  0.93387079     1.35200
V360        V  0.49525716  0.27916988  0.93527013     1.35200
C361        C  0.49442033  0.24387541  0.89318823     0.77900
C362        C  0.49588787  0.23624760  0.97596601     0.77900
C363        C  0.39829258  0.23845154  0.93471266     0.77800
C364        C  0.09244785  0.23841370  0.93466314     0.77800
O365        O  0.24643163  0.49876738  0.90349731    -0.71400
O366        O  0.24204017  0.49481413  0.96532835    -0.71600
O367        O  0.17158440  0.49674902  0.93363840    -0.71400
O368        O  0.31649182  0.49679771  0.93511689    -0.71400
O369        O  0.31583269  0.07820978  0.93564225    -0.71400
O370        O  0.17090476  0.07804454  0.93486410    -0.71400
O371        O  0.24215571  0.07625928  0.96615650    -0.71400
O372        O  0.24473210  0.07998107  0.90434155    -0.71500
V373        V  0.24406761  0.49839540  0.93440942     1.35200
V374        V  0.24336859  0.07650485  0.93524398     1.35200
C375        C  0.24685963  0.03915102  0.89344044     0.77900
C376        C  0.24106766  0.03421460  0.97627866     0.77900
C377        C  0.14636135  0.03651899  0.93427035     0.77800
C378        C  0.34045396  0.03672291  0.93536021     0.77800
O379        O  0.24486864  0.20119830  0.90263521    -0.71400
O380        O  0.24580758  0.19002766  0.96445652    -0.71600
O381        O  0.17271875  0.19607763  0.93364644    -0.71400
O382        O  0.31802106  0.19614276  0.93339494    -0.71400
O383        O  0.31767625  0.27896385  0.93591705    -0.71400
O384        O  0.17311241  0.27892200  0.93601780    -0.71400
O385        O  0.24564039  0.27287663  0.96663290    -0.71400
O386        O  0.24516093  0.28398117  0.90520839    -0.71500
V387        V  0.24536910  0.19738991  0.93355896     1.35200
V388        V  0.24540102  0.27698241  0.93591825     1.35200
C389        C  0.24466531  0.24448096  0.89344693     0.77900
C390        C  0.24593025  0.22985717  0.97602035     0.77900
C391        C  0.14832568  0.23771010  0.93478991     0.77800
C392        C  0.34243220  0.23776044  0.93467388     0.77800
O393        O  0.48868744  0.99594595  0.57359521    -0.71400
O394        O  0.47883355  0.49556382  0.51133058    -0.71600
O395        O  0.48303526  0.42339811  0.54251789    -0.71400
O396        O  0.48292478  0.06809183  0.54236984    -0.71400
O397        O  0.06329690  0.07321253  0.54035320    -0.71400
O398        O  0.06342421  0.42761443  0.54013237    -0.71400
O399        O  0.05978713  0.00064385  0.50949630    -0.71400
O400        O  0.06968033  0.50010490  0.57074107    -0.71500
V401        V  0.48494761  0.49573650  0.54245358     1.35200
V402        V  0.06236393  0.50040613  0.54020417     1.35200
C403        C  0.53232194  0.49590458  0.58274864     0.77900
C404        C  0.51937409  0.49546472  0.50007053     0.77900
C405        C  0.52431891  0.39869420  0.54142492     0.77800
C406        C  0.52423382  0.09282865  0.54145375     0.77800
O407        O  0.05633659  0.25078469  0.57369526    -0.71400
O408        O  0.06364064  0.24979198  0.51114723    -0.71600
O409        O  0.06162390  0.32250480  0.54216509    -0.71400
O410        O  0.06147196  0.17819558  0.54258813    -0.71400
O411        O  0.48226567  0.17315588  0.54001839    -0.71400
O412        O  0.48228654  0.31837187  0.54002785    -0.71400
O413        O  0.48826436  0.24574450  0.50955233    -0.71400
O414        O  0.47478346  0.24575551  0.57041983    -0.71500
V415        V  0.05926056  0.25034168  0.54239335     1.35200
V416        V  0.48363892  0.24575897  0.54003773     1.35200
C417        C  0.51318657  0.24653774  0.58270877     0.77900
C418        C  0.53114507  0.24515048  0.50023860     0.77900
C419        C  0.52384646  0.34282863  0.54137597     0.77800
C420        C  0.52377399  0.14870501  0.54158128     0.77800
O421        O  0.26128700  0.50131673  0.57381294    -0.71400
O422        O  0.27042138  0.00230048  0.51193988    -0.71600
O423        O  0.26542405  0.07450290  0.54301806    -0.71400
O424        O  0.26550139  0.42926424  0.54275868    -0.71400
O425        O  0.18256395  0.42957366  0.54103409    -0.71400
O426        O  0.18255444  0.07422912  0.54079695    -0.71400
O427        O  0.18763738  0.50174200  0.51013839    -0.71400
O428        O  0.17840173  0.00202788  0.57178502    -0.71500
V429        V  0.26416825  0.50186225  0.54286783     1.35200
V430        V  0.18452578  0.50189931  0.54094042     1.35200
C431        C  0.21837261  0.50140795  0.58330737     0.77900
C432        C  0.23038091  0.50213318  0.50052633     0.77900
C433        C  0.22383700  0.09896196  0.54186728     0.77800
C434        C  0.22385342  0.40483532  0.54190730     0.77800
O435        O  0.26362739  0.25188519  0.57303138    -0.71400
O436        O  0.26457390  0.25212845  0.51113541    -0.71600
O437        O  0.26469843  0.32426544  0.54206033    -0.71400
O438        O  0.26470780  0.17960558  0.54208416    -0.71400
O439        O  0.18168544  0.17929439  0.54142503    -0.71400
O440        O  0.18166205  0.32452195  0.54171941    -0.71400
O441        O  0.18157043  0.25245009  0.51061414    -0.71400
O442        O  0.18063782  0.25144798  0.57245959    -0.71500
V443        V  0.26276937  0.25195232  0.54203934     1.35200
V444        V  0.18299193  0.25191664  0.54158747     1.35200
C445        C  0.22168333  0.25163352  0.58326659     0.77900
C446        C  0.22332168  0.25253682  0.50036088     0.77900
C447        C  0.22334331  0.34897568  0.54190399     0.77800
C448        C  0.22335851  0.15485420  0.54178135     0.77800
C449        C  0.24711112  0.24507041  0.10623569    -0.16000
C450        C  0.24893502  0.20728942  0.12082623    -0.31200
H451        H  0.24622089  0.28438842  0.11189940     0.13000
H452        H  0.24973614  0.16778420  0.11544972     0.13600
C453        C  0.24953027  0.98985527  0.11920897    -0.16000
C454        C  0.24404720  0.03227503  0.10703987    -0.31200
H455        H  0.25187432  0.45428067  0.11139813     0.13000
H456        H  0.24151666  0.06930948  0.11491732     0.13600
C457        C  0.49973536  0.25293231  0.12017385    -0.16000
C458        C  0.49796219  0.21378694  0.10627436    -0.31200
H459        H  0.99835024  0.29125240  0.11339713     0.13000
H460        H  0.49714770  0.17491971  0.11250689     0.13600
C461        C  0.98925769  0.03578654  0.10650783    -0.16000
C462        C  0.99148059  0.99370911  0.11893181    -0.31200
H463        H  0.49032468  0.07352807  0.11476715     0.13000
H464        H  0.99190938  0.45773778  0.11130235     0.13600
C465        C  0.21447467  0.25614868  0.35549612    -0.16000
C466        C  0.25194708  0.25411876  0.37021194    -0.31200
H467        H  0.17499819  0.25716871  0.36090853     0.13000
H468        H  0.29140791  0.25309711  0.36472604     0.13600
C469        C  0.25431540  0.50756319  0.35615128    -0.16000
C470        C  0.21506764  0.50564384  0.36996721    -0.31200
H471        H  0.29298210  0.00858591  0.36256133     0.13000
H472        H  0.17636346  0.50490325  0.36360665     0.13600
C473        C  0.54328826  0.24065155  0.35551210    -0.16000
C474        C  0.50586453  0.24295969  0.37021243    -0.31200
H475        H  0.08064169  0.24844195  0.36244837     0.13000
H476        H  0.46639629  0.24361059  0.36474206     0.13600
C477        C  0.50575038  0.48235628  0.35621884    -0.16000
C478        C  0.54447121  0.49068993  0.36984554    -0.31200
H479        H  0.08238302  0.99135767  0.36198364     0.13000
H480        H  0.58305843  0.49585036  0.36341983     0.13600
C481        C  0.24144432  0.20948947  0.85611672    -0.16000
C482        C  0.24369058  0.24978775  0.86958813    -0.31200
H483        H  0.24049969  0.17099173  0.86270047     0.13000
H484        H  0.24461914  0.28827610  0.86294214     0.13600
C485        C  0.25082597  0.04119648  0.86948950    -0.16000
C486        C  0.25883693  0.99911910  0.85747061    -0.31200
H487        H  0.24747534  0.07816790  0.86158676     0.13000
H488        H  0.26202741  0.46384013  0.86536566     0.13600
C489        C  0.49167947  0.20851182  0.85577629    -0.16000
C490        C  0.49341323  0.24866732  0.86929988    -0.31200
H491        H  0.98952818  0.17060248  0.86261412     0.13000
H492        H  0.49397997  0.28713929  0.86263590     0.13600
C493        C  0.99720650  0.04096698  0.86907767    -0.16000
C494        C  0.00110309  0.99834712  0.85707279    -0.31200
H495        H  0.49604306  0.07881587  0.86159018     0.13000
H496        H  0.00102090  0.46305629  0.86497464     0.13600
C497        C  0.26148496  0.25237906  0.61987504    -0.16000
C498        C  0.21954228  0.25150345  0.60725466    -0.31200
H499        H  0.29916585  0.25329116  0.61248930     0.13000
H500        H  0.18197312  0.25056473  0.61474349     0.13600
C501        C  0.25592689  0.49825127  0.62002977    -0.16000
C502        C  0.21433714  0.50068215  0.60729761    -0.31200
H503        H  0.29350527  0.99715381  0.61263273     0.13000
H504        H  0.17657217  0.50207386  0.61458217     0.13600
C505        C  0.54189961  0.25060139  0.62112365    -0.16000
C506        C  0.50444249  0.24753719  0.60638563    -0.31200
H507        H  0.08263152  0.24863004  0.61591315     0.13000
H508        H  0.46498555  0.24590994  0.61185309     0.13600
C509        C  0.49907486  0.49664735  0.62025705    -0.16000
C510        C  0.53878168  0.49629694  0.60660108    -0.31200
H511        H  0.46034108  0.99683808  0.61381082     0.13000
H512        H  0.07649535  0.50018490  0.61281584     0.13600
O513        O  0.46538216  0.99809279  0.65575546    -0.71400
O514        O  0.47232692  0.50124600  0.71693811    -0.71600
O515        O  0.47026125  0.57218782  0.68549656    -0.71400
O516        O  0.47001779  0.92670451  0.68693205    -0.71400
O517        O  0.05377081  0.92406325  0.68503132    -0.71400
O518        O  0.05386332  0.56849922  0.68435309    -0.71400
O519        O  0.05659717  0.99695661  0.71574775    -0.71400
O520        O  0.04834342  0.49574504  0.65347506    -0.71500
V521        V  0.47116714  0.49950213  0.68625003     1.35200
V522        V  0.05147389  0.49635444  0.68466292     1.35200
C523        C  0.50496819  0.99769582  0.64415867     0.77900
C524        C  0.01547478  0.49844889  0.72682279     0.77900
C525        C  0.51211489  0.59639507  0.68468943     0.77800
C526        C  0.51173270  0.90223683  0.68627918     0.77800
O527        O  0.06843720  0.74736381  0.65824121    -0.71400
O528        O  0.04365449  0.74480362  0.71886406    -0.71600
O529        O  0.05505395  0.67348388  0.68802986    -0.71400
O530        O  0.05491961  0.81898727  0.68885201    -0.71400
O531        O  0.47180621  0.82143636  0.68352243    -0.71400
O532        O  0.47242522  0.67702254  0.68175944    -0.71400
O533        O  0.46078126  0.74635575  0.71321296    -0.71400
O534        O  0.48548664  0.75123422  0.65200708    -0.71500
V535        V  0.05390077  0.74622098  0.68841921     1.35200
V536        V  0.47422541  0.74916401  0.68269305     1.35200
C537        C  0.53082152  0.75106725  0.64467998     0.77900
C538        C  0.49816800  0.74506084  0.72625686     0.77900
C539        C  0.51309648  0.65220446  0.68463943     0.77800
C540        C  0.51252728  0.84629570  0.68632642     0.77800
O541        O  0.21180995  0.99859014  0.65443922    -0.71400
O542        O  0.21205319  0.50020736  0.71654327    -0.71600
O543        O  0.21138985  0.57153539  0.68497560    -0.71400
O544        O  0.21132881  0.92679195  0.68588261    -0.71400
O545        O  0.29436844  0.92647655  0.68614370    -0.71400
O546        O  0.29444511  0.57169111  0.68475876    -0.71400
O547        O  0.29539195  0.00053058  0.71626900    -0.71400
O548        O  0.29479093  0.49768833  0.65468823    -0.71500
V549        V  0.21332561  0.99919569  0.68552312     1.35200
V550        V  0.29312516  0.99909481  0.68547649     1.35200
C551        C  0.25361662  0.99817547  0.64404255     0.77900
C552        C  0.25391806  0.50102792  0.72686619     0.77900
C553        C  0.25281055  0.59617337  0.68462710     0.77800
C554        C  0.25267980  0.90201885  0.68616125     0.77800
O555        O  0.21507070  0.75095092  0.65334691    -0.71400
O556        O  0.20578191  0.74641767  0.71494714    -0.71600
O557        O  0.21069202  0.82156639  0.68495630    -0.71400
O558        O  0.21087909  0.67644268  0.68342657    -0.71400
O559        O  0.29381071  0.67666427  0.68538482    -0.71400
O560        O  0.29356149  0.82133464  0.68724843    -0.71400
O561        O  0.28870103  0.74600775  0.71717948    -0.71400
O562        O  0.29791513  0.75136428  0.65540730    -0.71500
V563        V  0.21221590  0.74895712  0.68419292     1.35200
V564        V  0.29186960  0.74895391  0.68627441     1.35200
C565        C  0.25792701  0.75166673  0.64386220     0.77900
C566        C  0.24563544  0.74421769  0.72645704     0.77900
C567        C  0.25224398  0.84606653  0.68621596     0.77800
C568        C  0.25246984  0.65199000  0.68436742     0.77800
O569        O  0.00607165  0.54261749  0.82254337    -0.71400
O570        O  0.51313737  0.54415067  0.76086371    -0.71600
O571        O  0.43724097  0.54442395  0.79063124    -0.71400
O572        O  0.08206570  0.54229414  0.79305783    -0.71400
O573        O  0.08270368  0.95795723  0.79339124    -0.71400
O574        O  0.43764762  0.96018555  0.79070092    -0.71400
O575        O  0.01436288  0.95730958  0.76111984    -0.71400
O576        O  0.50716651  0.95967704  0.82267651    -0.71500
V577        V  0.00983165  0.54049328  0.79163378     1.35200
V578        V  0.01032080  0.95939067  0.79192389     1.35200
C579        C  0.00450112  0.50114575  0.83313570     0.77900
C580        C  0.01564605  0.49944033  0.75053404     0.77900
C581        C  0.41257764  0.50290483  0.79055259     0.77800
C582        C  0.10668911  0.50085425  0.79344461     0.77800
O583        O  0.49059140  0.67704945  0.81939581    -0.71400
O584        O  0.99053001  0.69303547  0.75831933    -0.71600
O585        O  0.06261046  0.68481617  0.78913849    -0.71400
O586        O  0.41776035  0.68574402  0.78883874    -0.71400
O587        O  0.41771838  0.76826986  0.79279279    -0.71400
O588        O  0.06274357  0.76734362  0.79305749    -0.71400
O589        O  0.49056170  0.77723122  0.76210852    -0.71400
O590        O  0.98984060  0.75935011  0.82352214    -0.71500
V591        V  0.49020857  0.68749622  0.78873469     1.35200
V592        V  0.49016829  0.76673450  0.79272468     1.35200
C593        C  0.49054557  0.71534176  0.83189376     0.77900
C594        C  0.49120820  0.73890055  0.74966765     0.77900
C595        C  0.08728339  0.72608626  0.79107541     0.77800
C596        C  0.39316859  0.72696173  0.79092339     0.77800
O597        O  0.26026747  0.54362711  0.82291378    -0.71400
O598        O  0.25692346  0.54325912  0.76097981    -0.71600
O599        O  0.18664873  0.54292932  0.79270809    -0.71400
O600        O  0.33161635  0.54410703  0.79119212    -0.71400
O601        O  0.33255413  0.95989584  0.79086266    -0.71400
O602        O  0.18772545  0.95864803  0.79321225    -0.71400
O603        O  0.25697509  0.95935016  0.76114604    -0.71400
O604        O  0.26251330  0.95914537  0.82290875    -0.71500
V605        V  0.25900724  0.54189612  0.79194691     1.35200
V606        V  0.26005068  0.96090608  0.79203087     1.35200
C607        C  0.26082353  0.50204213  0.83344536     0.77900
C608        C  0.25532947  0.50157809  0.75063942     0.77900
C609        C  0.16244009  0.50120794  0.79328742     0.77800
C610        C  0.35652242  0.50274580  0.79075720     0.77800
O611        O  0.23997559  0.67720658  0.81990073    -0.71400
O612        O  0.24130931  0.69391017  0.75839951    -0.71600
O613        O  0.31283446  0.68552543  0.78931232    -0.71400
O614        O  0.16794081  0.68514334  0.78892292    -0.71400
O615        O  0.16769335  0.76763258  0.79297792    -0.71400
O616        O  0.31269415  0.76809091  0.79312454    -0.71400
O617        O  0.24080223  0.77646090  0.76236720    -0.71400
O618        O  0.24011371  0.75970900  0.82370887    -0.71500
V619        V  0.24042583  0.68704147  0.78920167     1.35200
V620        V  0.24023030  0.76634532  0.79297827     1.35200
C621        C  0.24022989  0.71575999  0.83226561     0.77900
C622        C  0.24212420  0.73802600  0.75001287     0.77900
C623        C  0.33733373  0.72686136  0.79114769     0.77800
C624        C  0.14320917  0.72627101  0.79098972     0.77800
O625        O  0.47013446  0.48142619  0.32142044    -0.71400
O626        O  0.47002026  0.98921671  0.26043109    -0.71600
O627        O  0.47209059  0.91224430  0.28953444    -0.71400
O628        O  0.47196645  0.55796608  0.29255246    -0.71400
O629        O  0.06469284  0.56666518  0.28919896    -0.71400
O630        O  0.06442373  0.92166919  0.28735247    -0.71400
O631        O  0.05468091  0.49700063  0.25749733    -0.71400
O632        O  0.07427488  0.99218159  0.31896470    -0.71500
V633        V  0.47278452  0.98516808  0.29095626     1.35200
V634        V  0.06306236  0.99425464  0.28831831     1.35200
C635        C  0.51061514  0.98237446  0.33236091     0.77900
C636        C  0.01062732  0.99752456  0.24940404     0.77900
C637        C  0.02322663  0.89700092  0.28960352     0.77800
C638        C  0.02355121  0.59113537  0.29172850     0.77800
O639        O  0.07329655  0.74638897  0.31958536    -0.71400
O640        O  0.05530796  0.74046453  0.25819949    -0.71600
O641        O  0.06429666  0.81622493  0.28768266    -0.71400
O642        O  0.06477681  0.67141580  0.28994644    -0.71400
O643        O  0.47495777  0.66295372  0.29484502    -0.71400
O644        O  0.47482729  0.80703569  0.29238487    -0.71400
O645        O  0.46582330  0.73184927  0.26281209    -0.71400
O646        O  0.48734648  0.73785376  0.32438986    -0.71500
V647        V  0.06282674  0.74370021  0.28893789     1.35200
V648        V  0.47733127  0.73492153  0.29355287     1.35200
C649        C  0.53249850  0.73860778  0.33200053     0.77900
C650        C  0.50411379  0.73029657  0.25020243     0.77900
C651        C  0.51546062  0.83195469  0.28965127     0.77800
C652        C  0.51555514  0.63786739  0.29251984     0.77800
O653        O  0.20449221  0.50798905  0.32287730    -0.71400
O654        O  0.19826592  0.00531304  0.26043053    -0.71600
O655        O  0.19976744  0.93503598  0.29208528    -0.71400
O656        O  0.19909200  0.57920581  0.29111262    -0.71400
O657        O  0.28208170  0.58023728  0.28995703    -0.71400
O658        O  0.28274000  0.93444404  0.29052279    -0.71400
O659        O  0.28103514  0.50654587  0.25956573    -0.71400
O660        O  0.28738792  0.00795563  0.32074157    -0.71500
V661        V  0.20200390  0.00702847  0.29161067     1.35200
V662        V  0.28172609  0.00729904  0.29022724     1.35200
C663        C  0.24783231  0.00806613  0.33230775     0.77900
C664        C  0.23953876  0.00455945  0.24958458     0.77900
C665        C  0.24083080  0.91018172  0.29123852     0.77800
C666        C  0.24006597  0.60433375  0.29048081     0.77800
O667        O  0.26929813  0.75714918  0.32382630    -0.71400
O668        O  0.28713910  0.75686496  0.26188595    -0.71600
O669        O  0.28019628  0.82928281  0.29282719    -0.71400
O670        O  0.27951595  0.68511268  0.29285805    -0.71400
O671        O  0.19711166  0.68464813  0.28848651    -0.71400
O672        O  0.19762806  0.83037197  0.28902563    -0.71400
O673        O  0.20453652  0.75818681  0.25818649    -0.71400
O674        O  0.18708204  0.75697082  0.31906603    -0.71500
V675        V  0.27746095  0.75721086  0.29279765     1.35200
V676        V  0.19824078  0.75759140  0.28875570     1.35200
C677        C  0.22454760  0.75682077  0.33186564     0.77900
C678        C  0.24815415  0.75682083  0.24962634     0.77900
C679        C  0.23942788  0.85438395  0.29102098     0.77800
C680        C  0.23870838  0.66026793  0.29056337     0.77800
O681        O  0.49285214  0.99252167  0.40243259    -0.71400
O682        O  0.47976121  0.49515881  0.46459545    -0.71600
O683        O  0.48518580  0.56626447  0.43303048    -0.71400
O684        O  0.48511224  0.92176138  0.43401759    -0.71400
O685        O  0.05444075  0.92599422  0.43437407    -0.71400
O686        O  0.05445943  0.57060243  0.43359560    -0.71400
O687        O  0.05608536  0.99925959  0.46500203    -0.71400
O688        O  0.05126715  0.49717821  0.40287546    -0.71500
V689        V  0.48724359  0.99397213  0.43352847     1.35200
V690        V  0.05247718  0.99828594  0.43401695     1.35200
C691        C  0.53683721  0.99260379  0.39366516     0.77900
C692        C  0.51980234  0.99485682  0.47620634     0.77900
C693        C  0.52622525  0.59112600  0.43477888     0.77800
C694        C  0.52629624  0.89699693  0.43515782     0.77800
O695        O  0.47637370  0.74449177  0.40611457    -0.71400
O696        O  0.48888951  0.74379497  0.46689770    -0.71600
O697        O  0.48385524  0.81679109  0.43658276    -0.71400
O698        O  0.48374025  0.67137002  0.43626400    -0.71400
O699        O  0.05538295  0.67574052  0.43363162    -0.71400
O700        O  0.05529523  0.82099872  0.43378477    -0.71400
O701        O  0.06100190  0.74831977  0.46470367    -0.71400
O702        O  0.05052229  0.74856982  0.40276843    -0.71500
V703        V  0.48496067  0.74410299  0.43644380     1.35200
V704        V  0.05401277  0.74838540  0.43375207     1.35200
C705        C  0.51481390  0.74385078  0.39389946     0.77900
C706        C  0.53150613  0.74443133  0.47638514     0.77900
C707        C  0.52550404  0.84114475  0.43511369     0.77800
C708        C  0.52541516  0.64701477  0.43499415     0.77800
O709        O  0.18222829  0.00393799  0.40551286    -0.71400
O710        O  0.18977111  0.50277351  0.46658660    -0.71600
O711        O  0.18775115  0.57621545  0.43615602    -0.71400
O712        O  0.18768033  0.93048233  0.43583842    -0.71400
O713        O  0.27062882  0.93134808  0.43421240    -0.71400
O714        O  0.27071437  0.57551096  0.43463983    -0.71400
O715        O  0.27261334  0.00274613  0.46566134    -0.71400
O716        O  0.26514734  0.50425086  0.40314840    -0.71500
V717        V  0.18849075  0.00334176  0.43601908     1.35200
V718        V  0.26817215  0.00345203  0.43442727     1.35200
C719        C  0.22162182  0.00457789  0.39384713     0.77900
C720        C  0.23151106  0.00253256  0.47664738     0.77900
C721        C  0.22966997  0.60044788  0.43541207     0.77800
C722        C  0.22961775  0.90632270  0.43504424     0.77800
O723        O  0.19857087  0.75361435  0.40245385    -0.71400
O724        O  0.18514202  0.75311064  0.46472888    -0.71600
O725        O  0.19006502  0.82544357  0.43363020    -0.71400
O726        O  0.19010824  0.68126086  0.43361795    -0.71400
O727        O  0.27281450  0.68052919  0.43680021    -0.71400
O728        O  0.27281544  0.82625375  0.43658154    -0.71400
O729        O  0.26794231  0.75341581  0.46725782    -0.71400
O730        O  0.28107352  0.75328715  0.40631337    -0.71500
V731        V  0.19252005  0.75335463  0.43363874     1.35200
V732        V  0.27197352  0.75337909  0.43668391     1.35200
C733        C  0.24286357  0.75361875  0.39393604     0.77900
C734        C  0.22505943  0.75306755  0.47648542     0.77900
C735        C  0.23098663  0.85044085  0.43509206     0.77800
C736        C  0.23100252  0.65631094  0.43530680     0.77800
O737        O  0.98953948  0.57616219  0.07177015    -0.71400
O738        O  0.49115332  0.57606837  0.01058336    -0.71600
O739        O  0.41804082  0.57586308  0.04123453    -0.71400
O740        O  0.06318038  0.57548208  0.04144978    -0.71400
O741        O  0.06218625  0.99096311  0.04151687    -0.71400
O742        O  0.41755773  0.99144747  0.04140699    -0.71400
O743        O  0.99063010  0.99125954  0.01014790    -0.71400
O744        O  0.48942458  0.99238077  0.07269315    -0.71500
V745        V  0.99067120  0.57418334  0.04097378     1.35200
V746        V  0.98974387  0.99291321  0.04116416     1.35200
C747        C  0.98949463  0.53510611  0.08249328     0.77900
C748        C  0.99211012  0.53449964  0.99964098     0.77900
C749        C  0.39357216  0.53425703  0.04125742     0.77800
C750        C  0.08765682  0.53388665  0.04158118     0.77800
O751        O  0.99600925  0.76371959  0.07333781    -0.71400
O752        O  0.49514781  0.77497456  0.01128163    -0.71600
O753        O  0.42344663  0.77104216  0.04251892    -0.71400
O754        O  0.06794299  0.77002481  0.04218114    -0.71400
O755        O  0.06830486  0.68719178  0.03990795    -0.71400
O756        O  0.42308424  0.68823469  0.04007376    -0.71400
O757        O  0.99544911  0.69118030  0.00918877    -0.71400
O758        O  0.49616983  0.68218194  0.07050360    -0.71500
V759        V  0.49564994  0.76904265  0.04231132     1.35200
V760        V  0.49585740  0.68947376  0.03998693     1.35200
C761        C  0.49650972  0.72109599  0.08245360     0.77900
C762        C  0.49529228  0.73472783  0.99979752     0.77900
C763        C  0.39866335  0.72990185  0.04129024     0.77800
C764        C  0.09271990  0.72889942  0.04105392     0.77800
O765        O  0.24094000  0.57463027  0.07255520    -0.71400
O766        O  0.24060163  0.57587705  0.01078617    -0.71600
O767        O  0.16818288  0.57519898  0.04170484    -0.71400
O768        O  0.31303193  0.57542686  0.04159659    -0.71400
O769        O  0.31252349  0.99095040  0.04111060    -0.71400
O770        O  0.16745689  0.99066352  0.04180699    -0.71400
O771        O  0.23931949  0.99141933  0.01049146    -0.71400
O772        O  0.24125177  0.99007235  0.07244706    -0.71500
V773        V  0.24062627  0.57363463  0.04166199     1.35200
V774        V  0.24003728  0.99235831  0.04147150     1.35200
C775        C  0.24222943  0.53304989  0.08300070     0.77900
C776        C  0.24062725  0.53468889  0.00010714     0.77900
C777        C  0.14357234  0.53371545  0.04172147     0.77800
C778        C  0.33771445  0.53401033  0.04128626     0.77800
O779        O  0.24522607  0.77699561  0.07086754    -0.71400
O780        O  0.24576664  0.77039222  0.00994114    -0.71600
O781        O  0.17277297  0.77188822  0.04032977    -0.71400
O782        O  0.31832368  0.77250486  0.04060102    -0.71400
O783        O  0.31800357  0.68953581  0.04192725    -0.71400
O784        O  0.17361737  0.68896357  0.04207385    -0.71400
O785        O  0.24556474  0.68742317  0.01078746    -0.71400
O786        O  0.24610937  0.69417738  0.07329803    -0.71500
V787        V  0.24553165  0.77120159  0.04045832     1.35200
V788        V  0.24581482  0.69150804  0.04201389     1.35200
C789        C  0.24579182  0.73760280  0.08254346     0.77900
C790        C  0.24553789  0.72863613  0.99986930     0.77900
C791        C  0.14860139  0.72998734  0.04113735     0.77800
C792        C  0.34276462  0.73075670  0.04127070     0.77800
O793        O  0.99502092  0.95510759  0.15374131    -0.71400
O794        O  0.50430107  0.95154297  0.21520646    -0.71600
O795        O  0.42593161  0.95292208  0.18636686    -0.71400
O796        O  0.07003736  0.95580676  0.18349504    -0.71400
O797        O  0.07012322  0.54001802  0.18272569    -0.71400
O798        O  0.42557242  0.53694226  0.18674394    -0.71400
O799        O  0.00183889  0.54051522  0.21521351    -0.71400
O800        O  0.49363603  0.53796251  0.15396621    -0.71500
V801        V  0.99764988  0.95783471  0.18454262     1.35200
V802        V  0.99789306  0.53871632  0.18414956     1.35200
C803        C  0.99353895  0.49744883  0.14288902     0.77900
C804        C  0.00368480  0.99819999  0.22572667     0.77900
C805        C  0.40114298  0.99450166  0.18678269     0.77800
C806        C  0.09479868  0.99723330  0.18281227     0.77800
O807        O  0.99815181  0.70343258  0.15328130    -0.71400
O808        O  0.50051106  0.69126697  0.21517114    -0.71600
O809        O  0.42799127  0.69457345  0.18435702    -0.71400
O810        O  0.07240806  0.69847386  0.18372385    -0.71400
O811        O  0.07365322  0.78140104  0.18555057    -0.71400
O812        O  0.42694832  0.77756026  0.18593931    -0.71400
O813        O  0.00187592  0.78042803  0.21645069    -0.71400
O814        O  0.50050820  0.78462535  0.15596270    -0.71500
V815        V  0.50011486  0.69747860  0.18415110     1.35200
V816        V  0.49944056  0.77708831  0.18646803     1.35200
C817        C  0.49989245  0.74565400  0.14401904     0.77900
C818        C  0.49912215  0.73152541  0.22658755     0.77900
C819        C  0.40298038  0.73561334  0.18512759     0.77800
C820        C  0.09761975  0.73935081  0.18477212     0.77800
O821        O  0.25045099  0.53608211  0.15304316    -0.71400
O822        O  0.24342032  0.54245251  0.21462785    -0.71600
O823        O  0.32022084  0.53803698  0.18533598    -0.71400
O824        O  0.17504488  0.53962802  0.18243918    -0.71400
O825        O  0.17469950  0.95543148  0.18385806    -0.71400
O826        O  0.31950558  0.95402321  0.18709581    -0.71400
O827        O  0.24231564  0.95867302  0.21636541    -0.71400
O828        O  0.25039991  0.95173318  0.15451209    -0.71500
V829        V  0.24743839  0.53742179  0.18387735     1.35200
V830        V  0.24689794  0.95656875  0.18543561     1.35200
C831        C  0.25039512  0.49372070  0.14319290     0.77900
C832        C  0.24059722  0.00147431  0.22587202     0.77900
C833        C  0.34480123  0.99513734  0.18658624     0.77800
C834        C  0.15053170  0.99705469  0.18284035     0.77800
O835        O  0.25022446  0.76336553  0.15176329    -0.71400
O836        O  0.25198671  0.78769603  0.21306752    -0.71600
O837        O  0.32301222  0.77566420  0.18218546    -0.71400
O838        O  0.17894978  0.77797443  0.18255399    -0.71400
O839        O  0.17719206  0.69590604  0.18798395    -0.71400
O840        O  0.32269446  0.69363415  0.18784659    -0.71400
O841        O  0.25079559  0.70556554  0.21840521    -0.71400
O842        O  0.24949909  0.68155960  0.15776673    -0.71500
V843        V  0.25105655  0.77456098  0.18246471     1.35200
V844        V  0.25003578  0.69578158  0.18793652     1.35200
C845        C  0.24949643  0.71804612  0.14440623     0.77900
C846        C  0.25182324  0.75015612  0.22608912     0.77900
C847        C  0.34734259  0.73474440  0.18504092     0.77800
C848        C  0.15348598  0.73761682  0.18513686     0.77800
O849        O  0.49409915  0.58193549  0.90428823    -0.71400
O850        O  0.99352725  0.57761021  0.96571024    -0.71600
O851        O  0.06648747  0.57969327  0.93495159    -0.71400
O852        O  0.42149849  0.57986764  0.93528881    -0.71400
O853        O  0.42086485  0.99524094  0.93437921    -0.71400
O854        O  0.06586087  0.99493907  0.93408816    -0.71400
O855        O  0.49298778  0.99314825  0.96532077    -0.71400
O856        O  0.99393611  0.99696188  0.90313977    -0.71500
V857        V  0.99401756  0.57811998  0.93482030     1.35200
V858        V  0.99336632  0.99657915  0.93402942     1.35200
C859        C  0.99519042  0.54095588  0.89300409     0.77900
C860        C  0.99315372  0.53548092  0.97579147     0.77900
C861        C  0.09105742  0.53819475  0.93438717     0.77800
C862        C  0.39690290  0.53836195  0.93499298     0.77800
O863        O  0.99412415  0.70148755  0.90276729    -0.71400
O864        O  0.49515375  0.69590168  0.96482757    -0.71600
O865        O  0.42237862  0.69752201  0.93401258    -0.71400
O866        O  0.06684137  0.69745552  0.93366719    -0.71400
O867        O  0.06740488  0.78038063  0.93546518    -0.71400
O868        O  0.42188997  0.78049703  0.93535924    -0.71400
O869        O  0.99460853  0.77835723  0.96613576    -0.71400
O870        O  0.49415485  0.78409242  0.90449587    -0.71500
V871        V  0.49465083  0.69971301  0.93386532     1.35200
V872        V  0.49452756  0.77943703  0.93521767     1.35200
C873        C  0.49374072  0.74399074  0.89315138     0.77900
C874        C  0.49508788  0.73664410  0.97594525     0.77900
C875        C  0.39755252  0.73874959  0.93468921     0.77800
C876        C  0.09171292  0.73865105  0.93463311     0.77800
O877        O  0.24595463  0.99702243  0.90355315    -0.71400
O878        O  0.24138705  0.99327486  0.96539329    -0.71600
O879        O  0.17101439  0.99505917  0.93367500    -0.71400
O880        O  0.31591104  0.99517662  0.93520522    -0.71400
O881        O  0.31643943  0.57982616  0.93559766    -0.71400
O882        O  0.17151859  0.57972763  0.93486800    -0.71400
O883        O  0.24284314  0.57779210  0.96613168    -0.71400
O884        O  0.24526287  0.58172194  0.90431804    -0.71500
V885        V  0.24349353  0.99674548  0.93447109     1.35200
V886        V  0.24397941  0.57815072  0.93522166     1.35200
C887        C  0.24729194  0.54091388  0.89339949     0.77900
C888        C  0.24177345  0.53572074  0.97623272     0.77900
C889        C  0.14695309  0.53822054  0.93425123     0.77800
C890        C  0.34104807  0.53833637  0.93529934     0.77800
O891        O  0.24418102  0.70132113  0.90266048    -0.71400
O892        O  0.24503785  0.69047650  0.96448896    -0.71600
O893        O  0.17199434  0.69634414  0.93366204    -0.71400
O894        O  0.31728671  0.69643910  0.93343610    -0.71400
O895        O  0.31693359  0.77926997  0.93588092    -0.71400
O896        O  0.17236385  0.77919447  0.93597492    -0.71400
O897        O  0.24488103  0.77332830  0.96661033    -0.71400
O898        O  0.24443311  0.78411310  0.90516110    -0.71500
V899        V  0.24463972  0.69767415  0.93358832     1.35200
V900        V  0.24465550  0.77727484  0.93588212     1.35200
C901        C  0.24398600  0.74455509  0.89343236     0.77900
C902        C  0.24514792  0.73034405  0.97602780     0.77900
C903        C  0.14758939  0.73797048  0.93477263     0.77800
C904        C  0.34169354  0.73806355  0.93466941     0.77800
O905        O  0.48882665  0.49588277  0.57358273    -0.71400
O906        O  0.47877189  0.99554012  0.51133723    -0.71600
O907        O  0.48293457  0.92340375  0.54253960    -0.71400
O908        O  0.48301956  0.56807732  0.54238292    -0.71400
O909        O  0.06324835  0.57320184  0.54031358    -0.71400
O910        O  0.06350395  0.92762043  0.54011402    -0.71400
O911        O  0.05974598  0.50058368  0.50948314    -0.71400
O912        O  0.06976594  0.00005441  0.57075263    -0.71500
V913        V  0.48484673  0.99574896  0.54246129     1.35200
V914        V  0.06242888  0.00041366  0.54021646     1.35200
C915        C  0.53217569  0.99596483  0.58276832     0.77900
C916        C  0.51932561  0.99546054  0.50008555     0.77900
C917        C  0.52422105  0.89870169  0.54144362     0.77800
C918        C  0.52432098  0.59282405  0.54145903     0.77800
O919        O  0.05639234  0.75077976  0.57363062    -0.71400
O920        O  0.06364586  0.74976386  0.51108553    -0.71600
O921        O  0.06169240  0.82248874  0.54210169    -0.71400
O922        O  0.06146697  0.67817833  0.54252798    -0.71400
O923        O  0.48231065  0.67313087  0.54004151    -0.71400
O924        O  0.48222716  0.81835151  0.54003460    -0.71400
O925        O  0.48825403  0.74570006  0.50956951    -0.71400
O926        O  0.47478020  0.74575534  0.57042995    -0.71500
V927        V  0.05929267  0.75032501  0.54232994     1.35200
V928        V  0.48363169  0.74573604  0.54005192     1.35200
C929        C  0.51318591  0.74658281  0.58271517     0.77900
C930        C  0.53113576  0.74513306  0.50025773     0.77900
C931        C  0.52377115  0.84283441  0.54138711     0.77800
C932        C  0.52383533  0.64870420  0.54159858     0.77800
O933        O  0.26118798  0.00136576  0.57383345    -0.71400
O934        O  0.27055013  0.50230850  0.51192251    -0.71600
O935        O  0.26555036  0.57449433  0.54301260    -0.71400
O936        O  0.26541395  0.92928415  0.54278625    -0.71400
O937        O  0.18247756  0.92956193  0.54105612    -0.71400
O938        O  0.18268328  0.57423022  0.54077271    -0.71400
O939        O  0.18750816  0.00174006  0.51016176    -0.71400
O940        O  0.17849973  0.50203351  0.57175817    -0.71500
V941        V  0.26405644  0.00187798  0.54288617     1.35200
V942        V  0.18441372  0.00189353  0.54096508     1.35200
C943        C  0.21827775  0.00144559  0.58333252     0.77900
C944        C  0.23024739  0.00212881  0.50054627     0.77900
C945        C  0.22396516  0.59895895  0.54185689     0.77800
C946        C  0.22377799  0.90483885  0.54192817     0.77800
O947        O  0.26365594  0.75192898  0.57303429    -0.71400
O948        O  0.26462322  0.75214856  0.51114291    -0.71600
O949        O  0.26467810  0.82429711  0.54206406    -0.71400
O950        O  0.26480235  0.67963115  0.54209272    -0.71400
O951        O  0.18178069  0.67926771  0.54142015    -0.71400
O952        O  0.18164162  0.82449347  0.54172620    -0.71400
O953        O  0.18161889  0.75242890  0.51061677    -0.71400
O954        O  0.18066610  0.75141108  0.57245789    -0.71500
V955        V  0.26280793  0.75198152  0.54204477     1.35200
V956        V  0.18303018  0.75188857  0.54158815     1.35200
C957        C  0.22170856  0.75164684  0.58326575     0.77900
C958        C  0.22337382  0.75253212  0.50036709     0.77900
C959        C  0.22330415  0.84897783  0.54191401     0.77800
C960        C  0.22346880  0.65485298  0.54178017     0.77800
C961        C  0.24625246  0.74497742  0.10627706    -0.16000
C962        C  0.24857676  0.70712495  0.12082849    -0.31200
H963        H  0.24504903  0.78425006  0.11198398     0.13000
H964        H  0.24970268  0.66766812  0.11541063     0.13600
C965        C  0.24954235  0.49145692  0.11916275    -0.16000
C966        C  0.24437548  0.53389729  0.10699186    -0.31200
H967        H  0.25188931  0.95267075  0.11145230     0.13000
H968        H  0.24186848  0.57092430  0.11487023     0.13600
C969        C  0.49932774  0.75286863  0.12020736    -0.16000
C970        C  0.49727467  0.71383027  0.10626330    -0.31200
H971        H  0.99811407  0.79123050  0.11344885     0.13000
H972        H  0.49633895  0.67493845  0.11245527     0.13600
C973        C  0.98974790  0.53725829  0.10648308    -0.16000
C974        C  0.99147340  0.49517756  0.11890953    -0.31200
H975        H  0.49097481  0.57482000  0.11474643     0.13000
H976        H  0.99211070  0.95626564  0.11133090     0.13600
C977        C  0.21452959  0.75618916  0.35552487    -0.16000
C978        C  0.25201686  0.75414239  0.37023090    -0.31200
H979        H  0.17505885  0.75722502  0.36094530     0.13000
H980        H  0.29147334  0.75311248  0.36473944     0.13600
C981        C  0.25426683  0.00775109  0.35618143    -0.16000
C982        C  0.21499489  0.00568693  0.36998192    -0.31200
H983        H  0.29304818  0.50829898  0.36251439     0.13000
H984        H  0.17630701  0.00483688  0.36360732     0.13600
C985        C  0.54335500  0.74064276  0.35554805    -0.16000
C986        C  0.50593030  0.74301553  0.37024481    -0.31200
H987        H  0.08066817  0.74850964  0.36243154     0.13000
H988        H  0.46646265  0.74372543  0.36477222     0.13600
C989        C  0.50563409  0.98257822  0.35624542    -0.16000
C990        C  0.54448063  0.99067679  0.36986341    -0.31200
H991        H  0.08233451  0.49119094  0.36194278     0.13000
H992        H  0.58287676  0.99560700  0.36347891     0.13600
C993        C  0.24092876  0.70937975  0.85612141    -0.16000
C994        C  0.24310473  0.74973852  0.86956450    -0.31200
H995        H  0.23992006  0.67092823  0.86274643     0.13000
H996        H  0.24407209  0.78820237  0.86288525     0.13600
C997        C  0.25106017  0.54295767  0.86944415    -0.16000
C998        C  0.25875624  0.50083247  0.85742992    -0.31200
H999        H  0.24777897  0.57991221  0.86152668     0.13000
H1000       H  0.26216910  0.96212329  0.86539118     0.13600
C1001       C  0.49117538  0.70846337  0.85576085    -0.16000
C1002       C  0.49285184  0.74868205  0.86925459    -0.31200
H1003       H  0.98881901  0.67046897  0.86258958     0.13000
H1004       H  0.49349238  0.78712353  0.86255974     0.13600
C1005       C  0.99753441  0.54284009  0.86904462    -0.16000
C1006       C  0.00086358  0.50017864  0.85704368    -0.31200
H1007       H  0.49658425  0.58050251  0.86153816     0.13000
H1008       H  0.00156310  0.96121103  0.86499168     0.13600
C1009       C  0.26149998  0.75249125  0.61987055    -0.16000
C1010       C  0.21956138  0.75153976  0.60725031    -0.31200
H1011       H  0.29918351  0.75344928  0.61248831     0.13000
H1012       H  0.18199080  0.75054524  0.61473659     0.13600
C1013       C  0.25585823  0.99843857  0.62005336    -0.16000
C1014       C  0.21425388  0.00075221  0.60732624    -0.31200
H1015       H  0.29357802  0.49688320  0.61261934     0.13000
H1016       H  0.17648942  0.00205547  0.61461744     0.13600
C1017       C  0.54190622  0.75074566  0.62111725    -0.16000
C1018       C  0.50444607  0.74762735  0.60638544    -0.31200
H1019       H  0.08268851  0.74866378  0.61585592     0.13000
H1020       H  0.46499311  0.74597033  0.61185261     0.13600
C1021       C  0.49895612  0.99690059  0.62029445    -0.16000
C1022       C  0.53863683  0.99639723  0.60662298    -0.31200
H1023       H  0.46047367  0.49647187  0.61375904     0.13000
H1024       H  0.07662478  0.00000993  0.61282391     0.13600
O1025       O  0.96553413  0.49489870  0.65587575    -0.71400
O1026       O  0.97357809  0.99798282  0.71709690    -0.71600
O1027       O  0.97113149  0.06919360  0.68576674    -0.71400
O1028       O  0.97068602  0.42367707  0.68712359    -0.71400
O1029       O  0.55290710  0.42706947  0.68535336    -0.71400
O1030       O  0.55342105  0.07144133  0.68421850    -0.71400
O1031       O  0.55535982  0.50082470  0.71576129    -0.71400
O1032       O  0.54822315  0.99807274  0.65353760    -0.71500
V1033       V  0.97201320  0.99645643  0.68644712     1.35200
V1034       V  0.55100738  0.99924023  0.68470344     1.35200
C1035       C  0.00495384  0.49528401  0.64419061     0.77900
C1036       C  0.51477674  0.00132295  0.72683024     0.77900
C1037       C  0.01300721  0.09341045  0.68501884     0.77800
C1038       C  0.01245355  0.39930092  0.68631483     0.77800
O1039       O  0.56729059  0.25063795  0.65807078    -0.71400
O1040       O  0.54303432  0.24752652  0.71871125    -0.71600
O1041       O  0.55447102  0.17655989  0.68775400    -0.71400
O1042       O  0.55394460  0.32201431  0.68882819    -0.71400
O1043       O  0.97269608  0.31845867  0.68380967    -0.71400
O1044       O  0.97349441  0.17410772  0.68188530    -0.71400
O1045       O  0.96174631  0.24333897  0.71340594    -0.71400
O1046       O  0.98671054  0.24876670  0.65222179    -0.71500
V1047       V  0.55306150  0.24927636  0.68825862     1.35200
V1048       V  0.97526816  0.24625661  0.68289526     1.35200
C1049       C  0.03207066  0.24862989  0.64489574     0.77900
C1050       C  0.99909974  0.24272512  0.72647676     0.77900
C1051       C  0.01406268  0.14925814  0.68496261     0.77800
C1052       C  0.01341477  0.34337872  0.68644991     0.77800
O1053       O  0.71582215  0.49929873  0.65336895    -0.71400
O1054       O  0.71422909  0.00054607  0.71557018    -0.71600
O1055       O  0.71446650  0.07228045  0.68411859    -0.71400
O1056       O  0.71418374  0.42761849  0.68481186    -0.71400
O1057       O  0.79720419  0.42736127  0.68561209    -0.71400
O1058       O  0.79751669  0.07252375  0.68432482    -0.71400
O1059       O  0.79698285  0.50154436  0.71573424    -0.71400
O1060       O  0.79887864  0.99877186  0.65408789    -0.71500
V1061       V  0.71612989  0.49998894  0.68444097     1.35200
V1062       V  0.79591703  0.49999605  0.68490588     1.35200
C1063       C  0.75794328  0.49889282  0.64319610     0.77900
C1064       C  0.75577329  0.00110085  0.72612798     0.77900
C1065       C  0.75584986  0.09697520  0.68400405     0.77800
C1066       C  0.75552398  0.40287700  0.68536110     0.77800
O1067       O  0.71802104  0.25157919  0.65258501    -0.71400
O1068       O  0.70815810  0.24750420  0.71414772    -0.71600
O1069       O  0.71349472  0.32243218  0.68408257    -0.71400
O1070       O  0.71375992  0.17722989  0.68273613    -0.71400
O1071       O  0.79667064  0.17755767  0.68480818    -0.71400
O1072       O  0.79633285  0.32219647  0.68656016    -0.71400
O1073       O  0.79103234  0.24703865  0.71659076    -0.71400
O1074       O  0.80084300  0.25211560  0.65471080    -0.71500
V1075       V  0.71498475  0.24979452  0.68341517     1.35200
V1076       V  0.79460791  0.24983579  0.68563314     1.35200
C1077       C  0.76087526  0.25231898  0.64311841     0.77900
C1078       C  0.74780380  0.24537299  0.72577700     0.77900
C1079       C  0.75504811  0.34692979  0.68542437     0.77800
C1080       C  0.75538759  0.15281910  0.68374963     0.77800
O1081       O  0.50696692  0.04268424  0.82288131    -0.71400
O1082       O  0.01419743  0.04039495  0.76084047    -0.71600
O1083       O  0.93782048  0.04084296  0.79030248    -0.71400
O1084       O  0.58264967  0.04302705  0.79308835    -0.71400
O1085       O  0.58208784  0.46126218  0.79297762    -0.71400
O1086       O  0.93726096  0.45913427  0.79048496    -0.71400
O1087       O  0.51298873  0.46106935  0.76104501    -0.71400
O1088       O  0.00607059  0.45959702  0.82276559    -0.71500
V1089       V  0.51024595  0.04146429  0.79192823     1.35200
V1090       V  0.50975341  0.46289265  0.79186490     1.35200
C1091       C  0.50553817  0.00092111  0.83327782     0.77900
C1092       C  0.51502835  0.00168097  0.75056732     0.77900
C1093       C  0.91311137  0.99938300  0.79017976     0.77800
C1094       C  0.60712688  0.00145109  0.79304466     0.77800
O1095       O  0.99009765  0.17716316  0.81982313    -0.71400
O1096       O  0.49025975  0.19508396  0.75800445    -0.71600
O1097       O  0.56305514  0.18642937  0.78844957    -0.71400
O1098       O  0.91785453  0.18566994  0.78903154    -0.71400
O1099       O  0.91823882  0.26827336  0.79270577    -0.71400
O1100       O  0.56294808  0.26881149  0.79286268    -0.71400
O1101       O  0.99149233  0.27597521  0.76216570    -0.71400
O1102       O  0.49038826  0.25969069  0.82351809    -0.71500
V1103       V  0.99031359  0.18695016  0.78917565     1.35200
V1104       V  0.99061865  0.26628533  0.79284041     1.35200
C1105       C  0.99028966  0.21567707  0.83217050     0.77900
C1106       C  0.99208899  0.23729576  0.74990752     0.77900
C1107       C  0.58762223  0.22772720  0.79049636     0.77800
C1108       C  0.89349232  0.22709601  0.79088096     0.77800
O1109       O  0.76105818  0.04155773  0.82236757    -0.71400
O1110       O  0.75846857  0.04243791  0.76044693    -0.71600
O1111       O  0.68771373  0.04260261  0.79208594    -0.71400
O1112       O  0.83270942  0.04140169  0.79079224    -0.71400
O1113       O  0.83164835  0.45973566  0.79021816    -0.71400
O1114       O  0.68676047  0.46088479  0.79244783    -0.71400
O1115       O  0.75625135  0.46035676  0.76040189    -0.71400
O1116       O  0.76138955  0.46022117  0.82219087    -0.71500
V1117       V  0.76010973  0.04039707  0.79140934     1.35200
V1118       V  0.75911178  0.46194201  0.79130417     1.35200
C1119       C  0.76085685  0.99982937  0.83278781     0.77900
C1120       C  0.75646449  0.00102789  0.74993135     0.77900
C1121       C  0.66290887  0.00122791  0.79261116     0.77800
C1122       C  0.85705024  0.99970729  0.79025096     0.77800
O1123       O  0.73952344  0.17831856  0.81925912    -0.71400
O1124       O  0.74234613  0.19513638  0.75774742    -0.71600
O1125       O  0.81299307  0.18623070  0.78895998    -0.71400
O1126       O  0.66817912  0.18675811  0.78803205    -0.71400
O1127       O  0.66823675  0.26920905  0.79220363    -0.71400
O1128       O  0.81329369  0.26881038  0.79272720    -0.71400
O1129       O  0.74206338  0.27767304  0.76172546    -0.71400
O1130       O  0.74022925  0.26079704  0.82312467    -0.71500
V1131       V  0.74065105  0.18822373  0.78855860     1.35200
V1132       V  0.74083098  0.26751189  0.79236722     1.35200
C1133       C  0.73997535  0.21680997  0.83166199     0.77900
C1134       C  0.74370750  0.23924382  0.74935854     0.77900
C1135       C  0.83769679  0.22740343  0.79087611     0.77800
C1136       C  0.64358393  0.22794090  0.79019599     0.77800
O1137       O  0.99198594  0.99265655  0.32344476    -0.71400
O1138       O  0.97234205  0.49637314  0.26209416    -0.71600
O1139       O  0.98191709  0.42167924  0.29208524    -0.71400
O1140       O  0.98248449  0.06652507  0.29353718    -0.71400
O1141       O  0.55508476  0.05718605  0.29168126    -0.71400
O1142       O  0.55502057  0.41313627  0.29003438    -0.71400
O1143       O  0.55305392  0.98764157  0.25972564    -0.71400
O1144       O  0.55309067  0.48356057  0.32224799    -0.71500
V1145       V  0.98372050  0.49421687  0.29271235     1.35200
V1146       V  0.55246896  0.48530626  0.29091873     1.35200
C1147       C  0.03619116  0.49222671  0.33165826     0.77900
C1148       C  0.51046846  0.49050673  0.24962908     0.77900
C1149       C  0.51400802  0.38804765  0.28952088     0.77800
C1150       C  0.51406901  0.08210891  0.29233775     0.77800
O1151       O  0.56929472  0.23746956  0.31885592    -0.71400
O1152       O  0.54828423  0.23142473  0.25826754    -0.71600
O1153       O  0.55701812  0.30762174  0.28743630    -0.71400
O1154       O  0.55724656  0.16189615  0.28985774    -0.71400
O1155       O  0.98240270  0.17135079  0.29406940    -0.71400
O1156       O  0.98181048  0.31634448  0.29215269    -0.71400
O1157       O  0.97290447  0.24102116  0.26250567    -0.71400
O1158       O  0.99089455  0.24604183  0.32378805    -0.71500
V1159       V  0.55632633  0.23463627  0.28868966     1.35200
V1160       V  0.98362615  0.24375053  0.29306572     1.35200
C1161       C  0.03502430  0.24689156  0.33215851     0.77900
C1162       C  0.01110740  0.23923282  0.25000939     0.77900
C1163       C  0.02296304  0.34099354  0.28970318     0.77800
C1164       C  0.02371176  0.14688277  0.29203040     0.77800
O1165       O  0.71613268  0.01074810  0.32224965    -0.71400
O1166       O  0.70941610  0.50876474  0.26043212    -0.71600
O1167       O  0.71284098  0.43749065  0.29170978    -0.71400
O1168       O  0.71294401  0.08246307  0.29096210    -0.71400
O1169       O  0.79591283  0.08245139  0.28951956    -0.71400
O1170       O  0.79581346  0.43758049  0.29011982    -0.71400
O1171       O  0.79265895  0.00877081  0.25890429    -0.71400
O1172       O  0.79895145  0.51059306  0.32074359    -0.71500
V1173       V  0.71438549  0.50993652  0.29133316     1.35200
V1174       V  0.79410284  0.50996893  0.28984448     1.35200
C1175       C  0.75860709  0.51065769  0.33204383     0.77900
C1176       C  0.74982409  0.50769340  0.24920929     0.77900
C1177       C  0.75436166  0.41297742  0.29093799     0.77800
C1178       C  0.75446062  0.10707996  0.29030373     0.77800
O1179       O  0.79840271  0.26000298  0.32116827    -0.71400
O1180       O  0.79396983  0.26032145  0.25941753    -0.71600
O1181       O  0.79602040  0.33268082  0.29033797    -0.71400
O1182       O  0.79608590  0.18767106  0.29016177    -0.71400
O1183       O  0.71308583  0.18764785  0.29127748    -0.71400
O1184       O  0.71299856  0.33254875  0.29139324    -0.71400
O1185       O  0.71092086  0.26011250  0.26042579    -0.71400
O1186       O  0.71544825  0.25998769  0.32229458    -0.71500
V1187       V  0.79449256  0.26023190  0.29030079     1.35200
V1188       V  0.71472466  0.26014781  0.29133437     1.35200
C1189       C  0.75777795  0.25990258  0.33225291     0.77900
C1190       C  0.75176871  0.25949939  0.24948513     0.77900
C1191       C  0.75446799  0.35717237  0.29090575     0.77800
C1192       C  0.75455618  0.16303947  0.29057120     0.77800
O1193       O  0.96836366  0.49772717  0.40454269    -0.71400
O1194       O  0.97310937  0.99888202  0.46620822    -0.71600
O1195       O  0.97152014  0.07095912  0.43518322    -0.71400
O1196       O  0.97144582  0.42567230  0.43557200    -0.71400
O1197       O  0.56797385  0.42139295  0.43621032    -0.71400
O1198       O  0.56782559  0.06679509  0.43634437    -0.71400
O1199       O  0.56259795  0.49397046  0.46679837    -0.71400
O1200       O  0.57537630  0.99415851  0.40582773    -0.71500
V1201       V  0.97274081  0.49831327  0.43530295     1.35200
V1202       V  0.56675130  0.49410291  0.43626561     1.35200
C1203       C  0.00851709  0.49688942  0.39319054     0.77900
C1204       C  0.01526892  0.49954017  0.47609623     0.77900
C1205       C  0.01321390  0.09537414  0.43447822     0.77800
C1206       C  0.01313010  0.40124761  0.43501277     0.77800
O1207       O  0.96774543  0.24842656  0.40532793    -0.71400
O1208       O  0.97814944  0.24823786  0.46680891    -0.71600
O1209       O  0.97244729  0.32060275  0.43613831    -0.71400
O1210       O  0.97255183  0.17596421  0.43602844    -0.71400
O1211       O  0.56655190  0.17184921  0.43385510    -0.71400
O1212       O  0.56655967  0.31633197  0.43350487    -0.71400
O1213       O  0.57172175  0.24455319  0.46485315    -0.71400
O1214       O  0.55890774  0.24362189  0.40250949    -0.71500
V1215       V  0.97442706  0.24829199  0.43605547     1.35200
V1216       V  0.56445147  0.24409311  0.43369344     1.35200
C1217       C  0.00730414  0.24846564  0.39357390     0.77900
C1218       C  0.02105248  0.24855703  0.47627898     0.77900
C1219       C  0.01369303  0.34538203  0.43500956     0.77800
C1220       C  0.01379936  0.15126020  0.43472874     0.77800
O1221       O  0.68124994  0.50864049  0.40357986    -0.71400
O1222       O  0.68357848  0.00695589  0.46535671    -0.71600
O1223       O  0.68229305  0.08027244  0.43467261    -0.71400
O1224       O  0.68225562  0.43542494  0.43427622    -0.71400
O1225       O  0.76526976  0.43534801  0.43374695    -0.71400
O1226       O  0.76530561  0.08038674  0.43405929    -0.71400
O1227       O  0.76655631  0.50706766  0.46491677    -0.71400
O1228       O  0.76417554  0.00856539  0.40288162    -0.71500
V1229       V  0.68397754  0.50784186  0.43446109     1.35200
V1230       V  0.76373263  0.50786104  0.43391487     1.35200
C1231       C  0.72214699  0.50894153  0.39270008     0.77900
C1232       C  0.72535851  0.50631705  0.47566032     0.77900
C1233       C  0.72373778  0.10491808  0.43430614     0.77800
C1234       C  0.72370495  0.41079310  0.43408234     0.77800
O1235       O  0.68017140  0.25840859  0.40372400    -0.71400
O1236       O  0.68339576  0.25706484  0.46544599    -0.71600
O1237       O  0.68199959  0.33034527  0.43472068    -0.71400
O1238       O  0.68200130  0.18531242  0.43444890    -0.71400
O1239       O  0.76501351  0.18542858  0.43369928    -0.71400
O1240       O  0.76501039  0.33027942  0.43400059    -0.71400
O1241       O  0.76637760  0.25701960  0.46487139    -0.71400
O1242       O  0.76313876  0.25846514  0.40286906    -0.71500
V1243       V  0.68352793  0.25781366  0.43457589     1.35200
V1244       V  0.76328736  0.25783553  0.43387069     1.35200
C1245       C  0.72096621  0.25870435  0.39277284     0.77900
C1246       C  0.72523692  0.25629217  0.47567044     0.77900
C1247       C  0.72354998  0.35490751  0.43428034     0.77800
C1248       C  0.72356141  0.16078533  0.43413891     0.77800
O1249       O  0.48933633  0.07530215  0.07228089    -0.71400
O1250       O  0.99117229  0.07428239  0.01018435    -0.71600
O1251       O  0.91745407  0.07439628  0.04049363    -0.71400
O1252       O  0.56233393  0.07482444  0.04159147    -0.71400
O1253       O  0.56311643  0.49317486  0.04180533    -0.71400
O1254       O  0.91804051  0.49286839  0.04076714    -0.71400
O1255       O  0.49146149  0.49305474  0.01056127    -0.71400
O1256       O  0.98969527  0.49325151  0.07216892    -0.71500
V1257       V  0.48981489  0.07315214  0.04144012     1.35200
V1258       V  0.49069871  0.49476309  0.04159436     1.35200
C1259       C  0.48933151  0.03423806  0.08302397     0.77900
C1260       C  0.49117191  0.03321513  0.00010135     0.77900
C1261       C  0.89279539  0.03290975  0.04056528     0.77800
C1262       C  0.58695418  0.03331110  0.04165111     0.77800
O1263       O  0.49705241  0.26457863  0.07343384    -0.71400
O1264       O  0.99647563  0.27360279  0.01127583    -0.71600
O1265       O  0.92456279  0.27024978  0.04230170    -0.71400
O1266       O  0.56868075  0.27129438  0.04212994    -0.71400
O1267       O  0.56949251  0.18844161  0.03992602    -0.71400
O1268       O  0.92356448  0.18742746  0.03993162    -0.71400
O1269       O  0.49649485  0.19169496  0.00931681    -0.71400
O1270       O  0.99639410  0.18078281  0.07050282    -0.71500
V1271       V  0.99668181  0.26763773  0.04225846     1.35200
V1272       V  0.99636601  0.18805994  0.03995421     1.35200
C1273       C  0.99670287  0.21979258  0.08240805     0.77900
C1274       C  0.99618928  0.23340043  0.99978654     0.77900
C1275       C  0.89947968  0.22932541  0.04104084     0.77800
C1276       C  0.59367134  0.23029466  0.04097825     0.77800
O1277       O  0.74059858  0.07410698  0.07184687    -0.71400
O1278       O  0.73964336  0.07496161  0.01008539    -0.71600
O1279       O  0.66751194  0.07466511  0.04120610    -0.71400
O1280       O  0.81240665  0.07444659  0.04074140    -0.71400
O1281       O  0.81306463  0.49289623  0.04046176    -0.71400
O1282       O  0.66811100  0.49304845  0.04118235    -0.71400
O1283       O  0.73997995  0.49344666  0.00981981    -0.71400
O1284       O  0.74162281  0.49255631  0.07179246    -0.71500
V1285       V  0.73997693  0.07290003  0.04096443     1.35200
V1286       V  0.74061867  0.49457499  0.04080811     1.35200
C1287       C  0.74145928  0.03260060  0.08235262     0.77900
C1288       C  0.73976870  0.03369345  0.99946204     0.77900
C1289       C  0.64284193  0.03320797  0.04137840     0.77800
C1290       C  0.83694202  0.03292606  0.04053936     0.77800
O1291       O  0.74664545  0.27814307  0.07047840    -0.71400
O1292       O  0.74675182  0.27094108  0.00953399    -0.71600
O1293       O  0.67389799  0.27321510  0.04003078    -0.71400
O1294       O  0.81953923  0.27268040  0.04013422    -0.71400
O1295       O  0.81854479  0.18972717  0.04164278    -0.71400
O1296       O  0.67433553  0.19029205  0.04187193    -0.71400
O1297       O  0.74607981  0.18798587  0.01049323    -0.71400
O1298       O  0.74684454  0.19535696  0.07307552    -0.71500
V1299       V  0.74671508  0.27201066  0.04006473     1.35200
V1300       V  0.74644672  0.19233650  0.04175613     1.35200
C1301       C  0.74688095  0.23889500  0.08225065     0.77900
C1302       C  0.74626193  0.22912646  0.99950240     0.77900
C1303       C  0.64953109  0.23142250  0.04093984     0.77800
C1304       C  0.84362556  0.23071726  0.04091407     0.77800
O1305       O  0.49391124  0.45496550  0.15371104    -0.71400
O1306       O  0.00026776  0.45747362  0.21531539    -0.71600
O1307       O  0.92486654  0.45810141  0.18541674    -0.71400
O1308       O  0.57096411  0.45497112  0.18271571    -0.71400
O1309       O  0.57042741  0.03709869  0.18324454    -0.71400
O1310       O  0.92596135  0.04012385  0.18535807    -0.71400
O1311       O  0.50367362  0.03457857  0.21596422    -0.71400
O1312       O  0.99475197  0.03810129  0.15309671    -0.71500
V1313       V  0.49842716  0.45568615  0.18445386     1.35200
V1314       V  0.49834445  0.03450084  0.18496872     1.35200
C1315       C  0.49276396  0.99528652  0.14334933     0.77900
C1316       C  0.50691443  0.49298660  0.22593437     0.77900
C1317       C  0.90064812  0.49987998  0.18535705     0.77800
C1318       C  0.59508729  0.49687673  0.18290668     0.77800
O1319       O  0.49987448  0.20211628  0.15299634    -0.71400
O1320       O  0.00324716  0.19774296  0.21557977    -0.71600
O1321       O  0.92838230  0.19960555  0.18533422    -0.71400
O1322       O  0.57264287  0.19623635  0.18400651    -0.71400
O1323       O  0.57242366  0.27900219  0.18686986    -0.71400
O1324       O  0.92800655  0.28262491  0.18593518    -0.71400
O1325       O  0.49820448  0.27439508  0.21709890    -0.71400
O1326       O  0.00026699  0.28656952  0.15520628    -0.71500
V1327       V  0.00055896  0.20154410  0.18449752     1.35200
V1328       V  0.00097436  0.28127583  0.18576749     1.35200
C1329       C  0.99892459  0.24680767  0.14376858     0.77900
C1330       C  0.00459752  0.23888154  0.22643005     0.77900
C1331       C  0.90354305  0.24080839  0.18559744     0.77800
C1332       C  0.59715777  0.23755161  0.18544511     0.77800
O1333       O  0.74831144  0.03651466  0.15236502    -0.71400
O1334       O  0.74733475  0.04418764  0.21401669    -0.71600
O1335       O  0.82047786  0.04062352  0.18360504    -0.71400
O1336       O  0.67526020  0.03901474  0.18278706    -0.71400
O1337       O  0.67598563  0.45694226  0.18437790    -0.71400
O1338       O  0.82045628  0.45864846  0.18543072    -0.71400
O1339       O  0.74749340  0.46186207  0.21590369    -0.71400
O1340       O  0.74907570  0.45481113  0.15394558    -0.71500
V1341       V  0.74785003  0.03847694  0.18321640     1.35200
V1342       V  0.74822852  0.45970079  0.18489614     1.35200
C1343       C  0.74848659  0.99396853  0.14266222     0.77900
C1344       C  0.74761653  0.50465674  0.22545357     0.77900
C1345       C  0.84482725  0.50019904  0.18487919     0.77800
C1346       C  0.65088593  0.49796965  0.18325868     0.77800
O1347       O  0.74934056  0.26555599  0.15162713    -0.71400
O1348       O  0.75034117  0.29023366  0.21291061    -0.71600
O1349       O  0.82223844  0.27984724  0.18214066    -0.71400
O1350       O  0.67755302  0.27825442  0.18257639    -0.71400
O1351       O  0.67795259  0.19611781  0.18783661    -0.71400
O1352       O  0.82351723  0.19799928  0.18812919    -0.71400
O1353       O  0.75035690  0.20810746  0.21833405    -0.71400
O1354       O  0.75109812  0.18381718  0.15772179    -0.71500
V1355       V  0.74987839  0.27688394  0.18235699     1.35200
V1356       V  0.75072576  0.19815108  0.18790733     1.35200
C1357       C  0.75000092  0.22019605  0.14430380     0.77900
C1358       C  0.75050040  0.25275642  0.22594759     0.77900
C1359       C  0.84752158  0.23953608  0.18532576     0.77800
C1360       C  0.65312680  0.23723353  0.18531564     0.77800
O1361       O  0.99395296  0.07993569  0.90393891    -0.71400
O1362       O  0.49320631  0.07614810  0.96611025    -0.71600
O1363       O  0.56585817  0.07817923  0.93509792    -0.71400
O1364       O  0.92095243  0.07804824  0.93474350    -0.71400
O1365       O  0.92146006  0.49682748  0.93391028    -0.71400
O1366       O  0.56642064  0.49683353  0.93422330    -0.71400
O1367       O  0.99356138  0.49460534  0.96488800    -0.71400
O1368       O  0.49427695  0.49897745  0.90339283    -0.71500
V1369       V  0.49336710  0.07657705  0.93520765     1.35200
V1370       V  0.49393742  0.49846011  0.93432255     1.35200
C1371       C  0.49442131  0.03944580  0.89335873     0.77900
C1372       C  0.49255727  0.03406036  0.97622123     0.77900
C1373       C  0.59042972  0.03668099  0.93442876     0.77800
C1374       C  0.89632574  0.03655812  0.93444417     0.77800
O1375       O  0.49476327  0.20103233  0.90280565    -0.71400
O1376       O  0.99562667  0.19502110  0.96474913    -0.71600
O1377       O  0.92296299  0.19761877  0.93385767    -0.71400
O1378       O  0.56770016  0.19764909  0.93363591    -0.71400
O1379       O  0.56791170  0.28060648  0.93518492    -0.71400
O1380       O  0.92284418  0.28058449  0.93533230    -0.71400
O1381       O  0.49558508  0.27850306  0.96611282    -0.71400
O1382       O  0.99561211  0.28435032  0.90471269    -0.71500
V1383       V  0.99525597  0.19942381  0.93381946     1.35200
V1384       V  0.99550913  0.27912996  0.93540548     1.35200
C1385       C  0.99486999  0.24440969  0.89327847     0.77900
C1386       C  0.99572392  0.23558685  0.97596934     0.77900
C1387       C  0.89830962  0.23896266  0.93450044     0.77800
C1388       C  0.59239715  0.23897323  0.93439959     0.77800
O1389       O  0.74613509  0.49861789  0.90287183    -0.71400
O1390       O  0.74220296  0.49513007  0.96471514    -0.71600
O1391       O  0.67151868  0.49689840  0.93319022    -0.71400
O1392       O  0.81645377  0.49686172  0.93441151    -0.71400
O1393       O  0.81587917  0.07811286  0.93487032    -0.71400
O1394       O  0.67093660  0.07818621  0.93421974    -0.71400
O1395       O  0.74225252  0.07650546  0.96541478    -0.71400
O1396       O  0.74469732  0.07972109  0.90358856    -0.71500
V1397       V  0.74401403  0.49849441  0.93379678     1.35200
V1398       V  0.74340572  0.07651348  0.93450434     1.35200
C1399       C  0.74667365  0.03879495  0.89274118     0.77900
C1400       C  0.74112216  0.03452860  0.97559025     0.77900
C1401       C  0.64632225  0.03668722  0.93388054     0.77800
C1402       C  0.84045054  0.03659155  0.93464320     0.77800
O1403       O  0.74473738  0.20188668  0.90217057    -0.71400
O1404       O  0.74576648  0.19091653  0.96406132    -0.71600
O1405       O  0.67270009  0.19684719  0.93324897    -0.71400
O1406       O  0.81795448  0.19689692  0.93296746    -0.71400
O1407       O  0.81769291  0.27971878  0.93546709    -0.71400
O1408       O  0.67303893  0.27970312  0.93554556    -0.71400
O1409       O  0.74557863  0.27376245  0.96619154    -0.71400
O1410       O  0.74511836  0.28466695  0.90471019    -0.71500
V1411       V  0.74531518  0.19817564  0.93313061     1.35200
V1412       V  0.74536531  0.27776707  0.93544682     1.35200
C1413       C  0.74450607  0.24514707  0.89295064     0.77900
C1414       C  0.74584955  0.23077547  0.97562047     0.77900
C1415       C  0.64827839  0.23845297  0.93439494     0.77800
C1416       C  0.84241941  0.23847264  0.93428916     0.77800
O1417       O  0.98711415  0.99962804  0.57369619    -0.71400
O1418       O  0.97686006  0.50059404  0.51148864    -0.71600
O1419       O  0.98056119  0.42811872  0.54238810    -0.71400
O1420       O  0.98046389  0.07241534  0.54276797    -0.71400
O1421       O  0.56583193  0.06838429  0.54045126    -0.71400
O1422       O  0.56591748  0.42316165  0.54040561    -0.71400
O1423       O  0.56170460  0.99577432  0.50983765    -0.71400
O1424       O  0.57154849  0.49570921  0.57094723    -0.71500
V1425       V  0.98278526  0.50024544  0.54253847     1.35200
V1426       V  0.56457272  0.49576498  0.54040533     1.35200
C1427       C  0.03070265  0.49949515  0.58268690     0.77900
C1428       C  0.01712001  0.50035648  0.49998358     0.77900
C1429       C  0.02164548  0.40328300  0.54122150     0.77800
C1430       C  0.02149082  0.09740904  0.54164102     0.77800
O1431       O  0.55733541  0.24654662  0.57412773    -0.71400
O1432       O  0.57106006  0.24511869  0.51190590    -0.71600
O1433       O  0.56508022  0.31811333  0.54273095    -0.71400
O1434       O  0.56495328  0.17343322  0.54325900    -0.71400
O1435       O  0.97851759  0.17757918  0.54104864    -0.71400
O1436       O  0.97868403  0.32316638  0.54047808    -0.71400
O1437       O  0.98067355  0.24969214  0.51021070    -0.71400
O1438       O  0.97353925  0.25105612  0.57119712    -0.71500
V1439       V  0.56311449  0.24578720  0.54299305     1.35200
V1440       V  0.97958071  0.25038279  0.54076087     1.35200
C1441       C  0.01285217  0.25108823  0.58291943     0.77900
C1442       C  0.02252684  0.24935229  0.50016756     0.77900
C1443       C  0.02054476  0.34742111  0.54125208     0.77800
C1444       C  0.02035853  0.15329414  0.54178563     0.77800
O1445       O  0.76390769  0.50212326  0.57243360    -0.71400
O1446       O  0.76677174  0.00408656  0.51032293    -0.71600
O1447       O  0.76576425  0.07549072  0.54163146    -0.71400
O1448       O  0.76573013  0.43069135  0.54111531    -0.71400
O1449       O  0.68270893  0.43054860  0.54057416    -0.71400
O1450       O  0.68275475  0.07563478  0.54085799    -0.71400
O1451       O  0.68374467  0.50380472  0.50986311    -0.71400
O1452       O  0.68098985  0.00247275  0.57155201    -0.71500
V1453       V  0.76394880  0.50309249  0.54136765     1.35200
V1454       V  0.68419383  0.50308917  0.54072063     1.35200
C1455       C  0.72169865  0.50185864  0.58252784     0.77900
C1456       C  0.72548528  0.50465273  0.49957307     0.77900
C1457       C  0.72434443  0.10015681  0.54118400     0.77800
C1458       C  0.72428836  0.40603293  0.54089267     0.77800
O1459       O  0.76571324  0.25281973  0.57216082    -0.71400
O1460       O  0.76687373  0.25375199  0.51016730    -0.71600
O1461       O  0.76611629  0.32567812  0.54122850    -0.71400
O1462       O  0.76616832  0.18060250  0.54110783    -0.71400
O1463       O  0.68313987  0.18068813  0.54074263    -0.71400
O1464       O  0.68308112  0.32549837  0.54100387    -0.71400
O1465       O  0.68387798  0.25385039  0.50998559    -0.71400
O1466       O  0.68272135  0.25256951  0.57178256    -0.71500
V1467       V  0.76463622  0.25316489  0.54115937     1.35200
V1468       V  0.68485954  0.25311029  0.54088457     1.35200
C1469       C  0.72392493  0.25258487  0.58250334     0.77900
C1470       C  0.72548220  0.25452197  0.49956277     0.77900
C1471       C  0.72451571  0.35017012  0.54104728     0.77800
C1472       C  0.72458017  0.15604791  0.54100213     0.77800
C1473       C  0.74724562  0.24661567  0.10600773    -0.16000
C1474       C  0.74938800  0.20901822  0.12070586    -0.31200
H1475       H  0.74607895  0.28597515  0.11160992     0.13000
H1476       H  0.75065824  0.16947939  0.11539313     0.13600
C1477       C  0.74704239  0.99128234  0.11864037    -0.16000
C1478       C  0.74326360  0.03367293  0.10634433    -0.31200
H1479       H  0.74836618  0.45534029  0.11094239     0.13000
H1480       H  0.74179638  0.07088680  0.11411707     0.13600
C1481       C  0.99798848  0.25262407  0.11990866    -0.16000
C1482       C  0.99702973  0.21300002  0.10624778    -0.31200
H1483       H  0.50058755  0.29179571  0.11393691     0.13000
H1484       H  0.99676798  0.17430310  0.11267503     0.13600
C1485       C  0.48970928  0.03622184  0.10704938    -0.16000
C1486       C  0.49026148  0.99388684  0.11935345    -0.31200
H1487       H  0.98867039  0.07321519  0.11412026     0.13000
H1488       H  0.48946131  0.45791699  0.11154435     0.13600
C1489       C  0.76049722  0.25960174  0.35624793    -0.16000
C1490       C  0.71847846  0.25930079  0.36877851    -0.31200
H1491       H  0.79808752  0.25948464  0.36376289     0.13000
H1492       H  0.68091200  0.25943438  0.36124431     0.13600
C1493       C  0.76176221  0.51045294  0.35607369    -0.16000
C1494       C  0.71977998  0.50972826  0.36867836    -0.31200
H1495       H  0.79939291  0.01068538  0.36351103     0.13000
H1496       H  0.68230711  0.50962527  0.36119838     0.13600
C1497       C  0.04201592  0.24809813  0.35601972    -0.16000
C1498       C  0.00192278  0.24822923  0.36967727    -0.31200
H1499       H  0.58285816  0.23996915  0.36082410     0.13000
H1500       H  0.96335522  0.24783449  0.36314327     0.13600
C1501       C  0.04369862  0.49262414  0.35555590    -0.16000
C1502       C  0.00378399  0.49557522  0.36924578    -0.31200
H1503       H  0.46741068  0.97766884  0.36284357     0.13000
H1504       H  0.96529036  0.49700941  0.36265391     0.13600
C1505       C  0.74063578  0.21024022  0.85553780    -0.16000
C1506       C  0.74338775  0.25045723  0.86905941    -0.31200
H1507       H  0.73932060  0.17172889  0.86209629     0.13000
H1508       H  0.74466701  0.28894087  0.86242630     0.13600
C1509       C  0.75071629  0.04066073  0.86878297    -0.16000
C1510       C  0.75835109  0.99846367  0.85677839    -0.31200
H1511       H  0.74779817  0.07765017  0.86086537     0.13000
H1512       H  0.76107247  0.46332660  0.86467984     0.13600
C1513       C  0.99100710  0.20904459  0.85600688    -0.16000
C1514       C  0.99392387  0.24928930  0.86942252    -0.31200
H1515       H  0.49110925  0.16999315  0.86230438     0.13000
H1516       H  0.99540379  0.28769464  0.86271093     0.13600
C1517       C  0.49703941  0.04160721  0.86938104    -0.16000
C1518       C  0.50182113  0.99930944  0.85721852    -0.31200
H1519       H  0.99682574  0.07809175  0.86119334     0.13000
H1520       H  0.50250143  0.46374396  0.86498896     0.13600
C1521       C  0.76429688  0.25310908  0.61908846    -0.16000
C1522       C  0.72218150  0.25230566  0.60652031    -0.31200
H1523       H  0.80189946  0.25402594  0.61164712     0.13000
H1524       H  0.68469941  0.25137581  0.61407939     0.13600
C1525       C  0.76061056  0.49911490  0.61917775    -0.16000
C1526       C  0.71884402  0.50086301  0.60654456    -0.31200
H1527       H  0.79822368  0.99872547  0.61171640     0.13000
H1528       H  0.68122321  0.50164245  0.61399676     0.13600
C1529       C  0.04312650  0.24964814  0.62129746    -0.16000
C1530       C  0.00535124  0.25127527  0.60668212    -0.31200
H1531       H  0.58148884  0.25211664  0.61584940     0.13000
H1532       H  0.96603026  0.25219584  0.61235836     0.13600
C1533       C  0.99848160  0.49559254  0.62034321    -0.16000
C1534       C  0.03773753  0.49856615  0.60651822    -0.31200
H1535       H  0.95985690  0.99443940  0.61403866     0.13000
H1536       H  0.57742315  0.49648851  0.61305275     0.13600
O1537       O  0.96570811  0.99510107  0.65591751    -0.71400
O1538       O  0.97326881  0.49825565  0.71705082    -0.71600
O1539       O  0.97086509  0.56920677  0.68563320    -0.71400
O1540       O  0.97086596  0.92366773  0.68708313    -0.71400
O1541       O  0.55297079  0.92699134  0.68528919    -0.71400
O1542       O  0.55325329  0.57148242  0.68412745    -0.71400
O1543       O  0.55562664  0.00049722  0.71577018    -0.71400
O1544       O  0.54823277  0.49794355  0.65352677    -0.71500
V1545       V  0.97177850  0.49647311  0.68640333     1.35200
V1546       V  0.55088436  0.49930872  0.68469228     1.35200
C1547       C  0.00510729  0.99549662  0.64421859     0.77900
C1548       C  0.51446049  0.50177273  0.72678744     0.77900
C1549       C  0.01274443  0.59341970  0.68488964     0.77800
C1550       C  0.01261005  0.89926159  0.68625803     0.77800
O1551       O  0.56725309  0.75066718  0.65806614    -0.71400
O1552       O  0.54285907  0.74731384  0.71869394    -0.71600
O1553       O  0.55431185  0.67650754  0.68768830    -0.71400
O1554       O  0.55390307  0.82193439  0.68885195    -0.71400
O1555       O  0.97274258  0.81848232  0.68374834    -0.71400
O1556       O  0.97331480  0.67414633  0.68175004    -0.71400
O1557       O  0.96161241  0.74326398  0.71330914    -0.71400
O1558       O  0.98671294  0.74886318  0.65213670    -0.71500
V1559       V  0.55295782  0.74920226  0.68824493     1.35200
V1560       V  0.97520118  0.74628141  0.68280220     1.35200
C1561       C  0.03208701  0.74867480  0.64482681     0.77900
C1562       C  0.99893969  0.74249539  0.72639346     0.77900
C1563       C  0.01384554  0.64924578  0.68483154     0.77800
C1564       C  0.01349751  0.84333906  0.68639735     0.77800
O1565       O  0.71590431  0.99948081  0.65341202    -0.71400
O1566       O  0.71392144  0.50082905  0.71551445    -0.71600
O1567       O  0.71423924  0.57229374  0.68397919    -0.71400
O1568       O  0.71431702  0.92760781  0.68478164    -0.71400
O1569       O  0.79734008  0.92728092  0.68552562    -0.71400
O1570       O  0.79729153  0.57256244  0.68422799    -0.71400
O1571       O  0.79729090  0.00119901  0.71573808    -0.71400
O1572       O  0.79879589  0.49861352  0.65409021    -0.71500
V1573       V  0.71631902  0.99996763  0.68449143     1.35200
V1574       V  0.79610603  0.99992843  0.68490809     1.35200
C1575       C  0.75799582  0.99910579  0.64321413     0.77900
C1576       C  0.75542563  0.50158902  0.72609634     0.77900
C1577       C  0.75561941  0.59699131  0.68386949     0.77800
C1578       C  0.75563460  0.90283264  0.68530087     0.77800
O1579       O  0.71796594  0.75169620  0.65250765    -0.71400
O1580       O  0.70801076  0.74739584  0.71405855    -0.71600
O1581       O  0.71349812  0.82244779  0.68403379    -0.71400
O1582       O  0.71357517  0.67725787  0.68260215    -0.71400
O1583       O  0.79648628  0.67749901  0.68469264    -0.71400
O1584       O  0.79633325  0.82210313  0.68653030    -0.71400
O1585       O  0.79087985  0.74681758  0.71652410    -0.71400
O1586       O  0.80078760  0.75213262  0.65464814    -0.71500
V1587       V  0.71488841  0.74981121  0.68332966     1.35200
V1588       V  0.79450992  0.74975251  0.68556620     1.35200
C1589       C  0.76082931  0.75240527  0.64305088     0.77900
C1590       C  0.74763325  0.74512119  0.72569702     0.77900
C1591       C  0.75508594  0.84688937  0.68537638     0.77800
C1592       C  0.75518031  0.65281297  0.68361221     0.77800
O1593       O  0.50657607  0.54419939  0.82277506    -0.71400
O1594       O  0.01377293  0.54131326  0.76072009    -0.71600
O1595       O  0.93740941  0.54217058  0.79019899    -0.71400
O1596       O  0.58219680  0.54432852  0.79295720    -0.71400
O1597       O  0.58249851  0.95996220  0.79294280    -0.71400
O1598       O  0.93771560  0.95780519  0.79045608    -0.71400
O1599       O  0.51338344  0.96016707  0.76100685    -0.71400
O1600       O  0.00656686  0.95798767  0.82272986    -0.71500
V1601       V  0.50979739  0.54270154  0.79181225     1.35200
V1602       V  0.51016680  0.96165645  0.79184085     1.35200
C1603       C  0.50519821  0.50250879  0.83323221     0.77900
C1604       C  0.51461502  0.50245762  0.75052300     0.77900
C1605       C  0.91267865  0.50072304  0.79013871     0.77800
C1606       C  0.60669499  0.50276715  0.79300214     0.77800
O1607       O  0.98971487  0.67683476  0.81975899    -0.71400
O1608       O  0.49002745  0.69473177  0.75796942    -0.71600
O1609       O  0.56275626  0.68607046  0.78844165    -0.71400
O1610       O  0.91758075  0.68528883  0.78891515    -0.71400
O1611       O  0.91793972  0.76788365  0.79262403    -0.71400
O1612       O  0.56267428  0.76847045  0.79279411    -0.71400
O1613       O  0.99119282  0.77563529  0.76208882    -0.71400
O1614       O  0.49012353  0.75946939  0.82346483    -0.71500
V1615       V  0.99003918  0.68659393  0.78909756     1.35200
V1616       V  0.99031919  0.76592931  0.79275822     1.35200
C1617       C  0.98989672  0.71537517  0.83209849     0.77900
C1618       C  0.99187740  0.73697668  0.74982339     0.77900
C1619       C  0.58733597  0.72736989  0.79044687     0.77800
C1620       C  0.89320601  0.72670135  0.79078543     0.77800
O1621       O  0.76067137  0.54322186  0.82226251    -0.71400
O1622       O  0.75801411  0.54340869  0.76032213    -0.71600
O1623       O  0.68727301  0.54394242  0.79197653    -0.71400
O1624       O  0.83227362  0.54275925  0.79066664    -0.71400
O1625       O  0.83207602  0.95838456  0.79018642    -0.71400
O1626       O  0.68718022  0.95954148  0.79238985    -0.71400
O1627       O  0.75670281  0.95938748  0.76034539    -0.71400
O1628       O  0.76175308  0.95855990  0.82215842    -0.71500
V1629       V  0.75967322  0.54173827  0.79129590     1.35200
V1630       V  0.75953392  0.96060276  0.79126169     1.35200
C1631       C  0.76055732  0.50157969  0.83275124     0.77900
C1632       C  0.75603183  0.50186112  0.74989764     0.77900
C1633       C  0.66247798  0.50256658  0.79258126     0.77800
C1634       C  0.85661804  0.50106144  0.79020434     0.77800
O1635       O  0.73918447  0.67795712  0.81919141    -0.71400
O1636       O  0.74210229  0.69477950  0.75765759    -0.71600
O1637       O  0.81270245  0.68582611  0.78888864    -0.71400
O1638       O  0.66788571  0.68638689  0.78794278    -0.71400
O1639       O  0.66795894  0.76883554  0.79212176    -0.71400
O1640       O  0.81301252  0.76840805  0.79264690    -0.71400
O1641       O  0.74180188  0.77731084  0.76165130    -0.71400
O1642       O  0.73992558  0.76043834  0.82303814    -0.71500
V1643       V  0.74035987  0.68784342  0.78847833     1.35200
V1644       V  0.74055152  0.76713082  0.79228604     1.35200
C1645       C  0.73961075  0.71647142  0.83158802     0.77900
C1646       C  0.74348254  0.73890419  0.74927660     0.77900
C1647       C  0.83741082  0.72699867  0.79079381     0.77800
C1648       C  0.64329802  0.72757104  0.79012019     0.77800
O1649       O  0.99184411  0.49255588  0.32344359    -0.71400
O1650       O  0.97266466  0.99612918  0.26208375    -0.71600
O1651       O  0.98215825  0.92164373  0.29212800    -0.71400
O1652       O  0.98227954  0.56655950  0.29360406    -0.71400
O1653       O  0.55499595  0.55720309  0.29169408    -0.71400
O1654       O  0.55510102  0.91308648  0.29014484    -0.71400
O1655       O  0.55283647  0.48788487  0.25967153    -0.71400
O1656       O  0.55307945  0.98366780  0.32229493    -0.71500
V1657       V  0.98395192  0.99417255  0.29270658     1.35200
V1658       V  0.55256273  0.98526435  0.29096957     1.35200
C1659       C  0.03631032  0.99234658  0.33168161     0.77900
C1660       C  0.51072475  0.99014566  0.24965255     0.77900
C1661       C  0.51408196  0.88800934  0.28960162     0.77800
C1662       C  0.51398509  0.58211713  0.29239022     0.77800
O1663       O  0.56932911  0.73740440  0.31888786    -0.71400
O1664       O  0.54821635  0.73135575  0.25830090    -0.71600
O1665       O  0.55704827  0.80756698  0.28748107    -0.71400
O1666       O  0.55719056  0.66185611  0.28989298    -0.71400
O1667       O  0.98228988  0.67138716  0.29411074    -0.71400
O1668       O  0.98192673  0.81635986  0.29212824    -0.71400
O1669       O  0.97285545  0.74093673  0.26251184    -0.71400
O1670       O  0.99092554  0.74613856  0.32377858    -0.71500
V1671       V  0.55631222  0.73458293  0.28872475     1.35200
V1672       V  0.98362311  0.74377021  0.29306626     1.35200
C1673       C  0.03506049  0.74695064  0.33214105     0.77900
C1674       C  0.01103285  0.73897432  0.25000678     0.77900
C1675       C  0.02311973  0.84094821  0.28969002     0.77800
C1676       C  0.02356724  0.64687044  0.29207803     0.77800
O1677       O  0.71604748  0.51066647  0.32227763    -0.71400
O1678       O  0.70966896  0.00859275  0.26040018    -0.71600
O1679       O  0.71299485  0.93747528  0.29171633    -0.71400
O1680       O  0.71278555  0.58248499  0.29103903    -0.71400
O1681       O  0.79575163  0.58246048  0.28954868    -0.71400
O1682       O  0.79597014  0.93754268  0.29015379    -0.71400
O1683       O  0.79240164  0.50891998  0.25889583    -0.71400
O1684       O  0.79903993  0.01064964  0.32074952    -0.71500
V1685       V  0.71454951  0.00991187  0.29130187     1.35200
V1686       V  0.79427005  0.00994041  0.28984993     1.35200
C1687       C  0.75867527  0.01074611  0.33203399     0.77900
C1688       C  0.75010991  0.00742085  0.24920039     0.77900
C1689       C  0.75450614  0.91295042  0.29094760     0.77800
C1690       C  0.75430780  0.60708823  0.29036163     0.77800
O1691       O  0.79842482  0.76001865  0.32115668    -0.71400
O1692       O  0.79391257  0.76013584  0.25940322    -0.71600
O1693       O  0.79609134  0.83261149  0.29029804    -0.71400
O1694       O  0.79599285  0.68761513  0.29019070    -0.71400
O1695       O  0.71299208  0.68767205  0.29132412    -0.71400
O1696       O  0.71307065  0.83256346  0.29137047    -0.71400
O1697       O  0.71086527  0.76001573  0.26043242    -0.71400
O1698       O  0.71547071  0.76008578  0.32229622    -0.71500
V1699       V  0.79447906  0.76016301  0.29028999     1.35200
V1700       V  0.71471161  0.76016175  0.29134049     1.35200
C1701       C  0.75780821  0.75997484  0.33224664     0.77900
C1702       C  0.75169540  0.75928084  0.24948129     0.77900
C1703       C  0.75456642  0.85714503  0.29088590     0.77800
C1704       C  0.75443954  0.66303042  0.29062078     0.77800
O1705       O  0.96837548  0.99779880  0.40456010    -0.71400
O1706       O  0.97309199  0.49890981  0.46618683    -0.71600
O1707       O  0.97149526  0.57094676  0.43514034    -0.71400
O1708       O  0.97144177  0.92568752  0.43556947    -0.71400
O1709       O  0.56797232  0.92139745  0.43625395    -0.71400
O1710       O  0.56784189  0.56679234  0.43635082    -0.71400
O1711       O  0.56257777  0.99402547  0.46681833    -0.71400
O1712       O  0.57538750  0.49421426  0.40580804    -0.71500
V1713       V  0.97275257  0.99832922  0.43532292     1.35200
V1714       V  0.56673906  0.99410547  0.43628511     1.35200
C1715       C  0.00853214  0.99697356  0.39320882     0.77900
C1716       C  0.01528947  0.99951981  0.47611590     0.77900
C1717       C  0.01318567  0.59536866  0.43443086     0.77800
C1718       C  0.01312140  0.90125575  0.43500421     0.77800
O1719       O  0.96772610  0.74846458  0.40528412    -0.71400
O1720       O  0.97812677  0.74821911  0.46676171    -0.71600
O1721       O  0.97242720  0.82061092  0.43610516    -0.71400
O1722       O  0.97252131  0.67596668  0.43597150    -0.71400
O1723       O  0.56657655  0.67185164  0.43388779    -0.71400
O1724       O  0.56657581  0.81633562  0.43353773    -0.71400
O1725       O  0.57172484  0.74455812  0.46488286    -0.71400
O1726       O  0.55895289  0.74362537  0.40254375    -0.71500
V1727       V  0.97440246  0.74829819  0.43600989     1.35200
V1728       V  0.56447403  0.74409614  0.43372597     1.35200
C1729       C  0.00729132  0.74851871  0.39353480     0.77900
C1730       C  0.02103312  0.74853624  0.47622890     0.77900
C1731       C  0.01367563  0.84538849  0.43498381     0.77800
C1732       C  0.01376806  0.65125961  0.43467259     0.77800
O1733       O  0.68126793  0.00866901  0.40357011    -0.71400
O1734       O  0.68355000  0.50695754  0.46536367    -0.71600
O1735       O  0.68225874  0.58026521  0.43467280    -0.71400
O1736       O  0.68226748  0.93543548  0.43426089    -0.71400
O1737       O  0.76528131  0.93534581  0.43372643    -0.71400
O1738       O  0.76527089  0.58038776  0.43405723    -0.71400
O1739       O  0.76658410  0.00704407  0.46490904    -0.71400
O1740       O  0.76415777  0.50853705  0.40289232    -0.71500
V1741       V  0.68400102  0.00785182  0.43445284     1.35200
V1742       V  0.76375576  0.00786030  0.43390539     1.35200
C1743       C  0.72216043  0.00898286  0.39268865     0.77900
C1744       C  0.72538688  0.00630792  0.47565408     0.77900
C1745       C  0.72370081  0.60491571  0.43429944     0.77800
C1746       C  0.72371247  0.91079687  0.43406221     0.77800
O1747       O  0.68016925  0.75842042  0.40369711    -0.71400
O1748       O  0.68335526  0.75707107  0.46541417    -0.71600
O1749       O  0.68199169  0.83035479  0.43469202    -0.71400
O1750       O  0.68196742  0.68531784  0.43442166    -0.71400
O1751       O  0.76497982  0.68542348  0.43367966    -0.71400
O1752       O  0.76500295  0.83027460  0.43398188    -0.71400
O1753       O  0.76633852  0.75700999  0.46484758    -0.71400
O1754       O  0.76313817  0.75846814  0.40285209    -0.71500
V1755       V  0.68350615  0.75782150  0.43454701     1.35200
V1756       V  0.76326671  0.75783087  0.43385044     1.35200
C1757       C  0.72097227  0.75872204  0.39275248     0.77900
C1758       C  0.72519158  0.75628673  0.47564060     0.77900
C1759       C  0.72354695  0.85491026  0.43425720     0.77800
C1760       C  0.72352486  0.66078474  0.43411996     0.77800
O1761       O  0.49007237  0.57659843  0.07225735    -0.71400
O1762       O  0.99184692  0.57584121  0.01016979    -0.71600
O1763       O  0.91818638  0.57588576  0.04050058    -0.71400
O1764       O  0.56306487  0.57619198  0.04156528    -0.71400
O1765       O  0.56238500  0.99180216  0.04184449    -0.71400
O1766       O  0.91730365  0.99137384  0.04081467    -0.71400
O1767       O  0.49070929  0.99160120  0.01061572    -0.71400
O1768       O  0.98900946  0.99179594  0.07220251    -0.71500
V1769       V  0.49055305  0.57452765  0.04141835     1.35200
V1770       V  0.48997615  0.99338345  0.04164574     1.35200
C1771       C  0.48996658  0.53553196  0.08299060     0.77900
C1772       C  0.49189103  0.53469365  0.00006356     0.77900
C1773       C  0.89352903  0.53440177  0.04055117     0.77800
C1774       C  0.58768592  0.53468557  0.04161546     0.77800
O1775       O  0.49625849  0.76480501  0.07345279    -0.71400
O1776       O  0.99557617  0.77405797  0.01123749    -0.71600
O1777       O  0.92368153  0.77063902  0.04228778    -0.71400
O1778       O  0.56781869  0.77159947  0.04211983    -0.71400
O1779       O  0.56861234  0.68875577  0.03988973    -0.71400
O1780       O  0.92268747  0.68783424  0.03984472    -0.71400
O1781       O  0.49561549  0.69209553  0.00929092    -0.71400
O1782       O  0.99546280  0.68110279  0.07042244    -0.71500
V1783       V  0.99580564  0.76802365  0.04223063     1.35200
V1784       V  0.99548140  0.68845820  0.03988665     1.35200
C1785       C  0.99584415  0.72004149  0.08235920     0.77900
C1786       C  0.99533219  0.73386699  0.99973583     0.77900
C1787       C  0.89860080  0.72971891  0.04099209     0.77800
C1788       C  0.59280037  0.73059765  0.04095269     0.77800
O1789       O  0.74126826  0.57555468  0.07183267    -0.71400
O1790       O  0.74037732  0.57644489  0.01007562    -0.71600
O1791       O  0.66822478  0.57607598  0.04118213    -0.71400
O1792       O  0.81312637  0.57592448  0.04073772    -0.71400
O1793       O  0.81232060  0.99141385  0.04046516    -0.71400
O1794       O  0.66736204  0.99163363  0.04123635    -0.71400
O1795       O  0.73917804  0.99195767  0.00985254    -0.71400
O1796       O  0.74097036  0.99110567  0.07181784    -0.71500
V1797       V  0.74069168  0.57435635  0.04095074     1.35200
V1798       V  0.73987444  0.99311582  0.04083605     1.35200
C1799       C  0.74204230  0.53404520  0.08233456     0.77900
C1800       C  0.74052251  0.53519999  0.99944033     0.77900
C1801       C  0.64357281  0.53460749  0.04133899     0.77800
C1802       C  0.83767493  0.53441252  0.04053465     0.77800
O1803       O  0.74575060  0.77829825  0.07048968    -0.71400
O1804       O  0.74587654  0.77138163  0.00951140    -0.71600
O1805       O  0.67301637  0.77351395  0.04002312    -0.71400
O1806       O  0.81864502  0.77303925  0.04013109    -0.71400
O1807       O  0.81768783  0.69008236  0.04156429    -0.71400
O1808       O  0.67347244  0.69058944  0.04181790    -0.71400
O1809       O  0.74520666  0.68842977  0.01043127    -0.71400
O1810       O  0.74602857  0.69550365  0.07301317    -0.71500
V1811       V  0.74582647  0.77232646  0.04005896     1.35200
V1812       V  0.74558956  0.69264841  0.04169193     1.35200
C1813       C  0.74605393  0.73898736  0.08223010     0.77900
C1814       C  0.74540899  0.72958900  0.99945728     0.77900
C1815       C  0.64865877  0.73171774  0.04091014     0.77800
C1816       C  0.84274930  0.73108694  0.04087076     0.77800
O1817       O  0.49428498  0.95379779  0.15378018    -0.71400
O1818       O  0.00061821  0.95669462  0.21539945    -0.71600
O1819       O  0.92521377  0.95706802  0.18549295    -0.71400
O1820       O  0.57135570  0.95405271  0.18278705    -0.71400
O1821       O  0.57009191  0.53801343  0.18328932    -0.71400
O1822       O  0.92556309  0.54115800  0.18538430    -0.71400
O1823       O  0.50332743  0.53527934  0.21600361    -0.71400
O1824       O  0.99445843  0.53943447  0.15313304    -0.71500
V1825       V  0.49882620  0.95472505  0.18452873     1.35200
V1826       V  0.49801720  0.53545755  0.18499655     1.35200
C1827       C  0.49251265  0.49650771  0.14332148     0.77900
C1828       C  0.50726399  0.99237779  0.22595705     0.77900
C1829       C  0.90102036  0.99886044  0.18537941     0.77800
C1830       C  0.59545144  0.99597299  0.18292053     0.77800
O1831       O  0.49956581  0.70191681  0.15301709    -0.71400
O1832       O  0.00317415  0.69738555  0.21557537    -0.71600
O1833       O  0.92817380  0.69924630  0.18536560    -0.71400
O1834       O  0.57242872  0.69601026  0.18400448    -0.71400
O1835       O  0.57221132  0.77876755  0.18691140    -0.71400
O1836       O  0.92779471  0.78226728  0.18591824    -0.71400
O1837       O  0.49798826  0.77417403  0.21713487    -0.71400
O1838       O  0.00010164  0.78629013  0.15522556    -0.71500
V1839       V  0.00034923  0.70120111  0.18448326     1.35200
V1840       V  0.00076301  0.78092851  0.18577526     1.35200
C1841       C  0.99862579  0.74657796  0.14376570     0.77900
C1842       C  0.00446587  0.73853532  0.22642760     0.77900
C1843       C  0.90333208  0.74044866  0.18559756     0.77800
C1844       C  0.59694454  0.73731908  0.18546346     0.77800
O1845       O  0.74797787  0.53771443  0.15240429    -0.71400
O1846       O  0.74692290  0.54482838  0.21408573    -0.71600
O1847       O  0.82008365  0.54160865  0.18366933    -0.71400
O1848       O  0.67488028  0.53991986  0.18282851    -0.71400
O1849       O  0.67633757  0.95604916  0.18445408    -0.71400
O1850       O  0.82080165  0.95768058  0.18551001    -0.71400
O1851       O  0.74782935  0.96123762  0.21597732    -0.71400
O1852       O  0.74940285  0.95362409  0.15401984    -0.71500
V1853       V  0.74746372  0.53941347  0.18326814     1.35200
V1854       V  0.74857505  0.95877843  0.18496990     1.35200
C1855       C  0.74822688  0.49523622  0.14264314     0.77900
C1856       C  0.74797041  0.00412984  0.22545240     0.77900
C1857       C  0.84519793  0.99921019  0.18489152     0.77800
C1858       C  0.65125136  0.99707485  0.18327514     0.77800
O1859       O  0.74904672  0.76531401  0.15162515    -0.71400
O1860       O  0.75023204  0.78993774  0.21290316    -0.71600
O1861       O  0.82204337  0.77950292  0.18211084    -0.71400
O1862       O  0.67735452  0.77800484  0.18260521    -0.71400
O1863       O  0.67772396  0.69585602  0.18783062    -0.71400
O1864       O  0.82328722  0.69765911  0.18811062    -0.71400
O1865       O  0.75016006  0.70781386  0.21833043    -0.71400
O1866       O  0.75083156  0.68356561  0.15769010    -0.71500
V1867       V  0.74968082  0.77659513  0.18235397     1.35200
V1868       V  0.75049588  0.69785836  0.18789230     1.35200
C1869       C  0.74967407  0.71997633  0.14428214     0.77900
C1870       C  0.75037679  0.75247260  0.22594322     0.77900
C1871       C  0.84730956  0.73918472  0.18530764     0.77800
C1872       C  0.65291331  0.73698728  0.18533026     0.77800
O1873       O  0.99457031  0.58178976  0.90392642    -0.71400
O1874       O  0.49379160  0.57771334  0.96608852    -0.71600
O1875       O  0.56643981  0.57984167  0.93508454    -0.71400
O1876       O  0.92155522  0.57984271  0.93472473    -0.71400
O1877       O  0.92087617  0.99502992  0.93392779    -0.71400
O1878       O  0.56581431  0.99516460  0.93429983    -0.71400
O1879       O  0.99290045  0.99292032  0.96493681    -0.71400
O1880       O  0.49376427  0.99726858  0.90344105    -0.71500
V1881       V  0.49395217  0.57821703  0.93518439     1.35200
V1882       V  0.49333389  0.99681660  0.93437509     1.35200
C1883       C  0.49490958  0.54116645  0.89332114     0.77900
C1884       C  0.49321813  0.53560179  0.97618283     0.77900
C1885       C  0.59102416  0.53835610  0.93439316     0.77800
C1886       C  0.89691916  0.53835856  0.93442014     0.77800
O1887       O  0.49403377  0.70118636  0.90279889    -0.71400
O1888       O  0.99485727  0.69539369  0.96472348    -0.71600
O1889       O  0.92223774  0.69779902  0.93381564    -0.71400
O1890       O  0.56694714  0.69789188  0.93363178    -0.71400
O1891       O  0.56718324  0.78085103  0.93513359    -0.71400
O1892       O  0.92210065  0.78077000  0.93520093    -0.71400
O1893       O  0.49482612  0.77887399  0.96606939    -0.71400
O1894       O  0.99495372  0.78438075  0.90460177    -0.71500
V1895       V  0.99453376  0.69962337  0.93379153     1.35200
V1896       V  0.99476336  0.77933490  0.93530455     1.35200
C1897       C  0.99425224  0.74438015  0.89320274     0.77900
C1898       C  0.99490545  0.73600582  0.97591335     0.77900
C1899       C  0.89757442  0.73913946  0.93441687     0.77800
C1900       C  0.59165709  0.73921018  0.93436202     0.77800
O1901       O  0.74561386  0.99675289  0.90291527    -0.71400
O1902       O  0.74151518  0.99351143  0.96476358    -0.71600
O1903       O  0.67090666  0.99518671  0.93321656    -0.71400
O1904       O  0.81584306  0.99507840  0.93448325    -0.71400
O1905       O  0.81645788  0.57989067  0.93485959    -0.71400
O1906       O  0.67151420  0.57989148  0.93423569    -0.71400
O1907       O  0.74288200  0.57811698  0.96541769    -0.71400
O1908       O  0.74521909  0.58158015  0.90358850    -0.71500
V1909       V  0.74340312  0.99674753  0.93384377     1.35200
V1910       V  0.74398398  0.57825542  0.93450651     1.35200
C1911       C  0.74712766  0.54068603  0.89271726     0.77900
C1912       C  0.74181577  0.53610565  0.97556799     0.77900
C1913       C  0.64691682  0.53838549  0.93386736     0.77800
C1914       C  0.84104516  0.53838280  0.93460592     0.77800
O1915       O  0.74401817  0.70189018  0.90213751    -0.71400
O1916       O  0.74498949  0.69130017  0.96403977    -0.71600
O1917       O  0.67195058  0.69706266  0.93321985    -0.71400
O1918       O  0.81720851  0.69707065  0.93294500    -0.71400
O1919       O  0.81696391  0.77990200  0.93536466    -0.71400
O1920       O  0.67231110  0.77992716  0.93543583    -0.71400
O1921       O  0.74482314  0.77414959  0.96610302    -0.71400
O1922       O  0.74442128  0.78468080  0.90459355    -0.71500
V1923       V  0.74456698  0.69836907  0.93310376     1.35200
V1924       V  0.74463695  0.77796969  0.93534284     1.35200
C1925       C  0.74383467  0.74509459  0.89287162     0.77900
C1926       C  0.74505657  0.73120562  0.97556914     0.77900
C1927       C  0.64753901  0.73867738  0.93433428     0.77800
C1928       C  0.84168296  0.73864723  0.93421955     0.77800
O1929       O  0.98702486  0.49961807  0.57367267    -0.71400
O1930       O  0.97690276  0.00056673  0.51151293    -0.71600
O1931       O  0.98064743  0.92811113  0.54241116    -0.71400
O1932       O  0.98041749  0.57242879  0.54274612    -0.71400
O1933       O  0.56592187  0.56838638  0.54043350    -0.71400
O1934       O  0.56581695  0.92317215  0.54042786    -0.71400
O1935       O  0.56176422  0.49576871  0.50981494    -0.71400
O1936       O  0.57141173  0.99572287  0.57097167    -0.71500
V1937       V  0.98285239  0.00023530  0.54256187     1.35200
V1938       V  0.56447417  0.99577051  0.54042797     1.35200
C1939       C  0.03079813  0.99948554  0.58270453     0.77900
C1940       C  0.01715418  0.00036130  0.50000262     0.77900
C1941       C  0.02172981  0.90328263  0.54120944     0.77800
C1942       C  0.02145040  0.59741041  0.54160305     0.77800
O1943       O  0.55733385  0.74659577  0.57413600    -0.71400
O1944       O  0.57105147  0.74513948  0.51192287    -0.71600
O1945       O  0.56502065  0.81814379  0.54274001    -0.71400
O1946       O  0.56499892  0.67345972  0.54327622    -0.71400
O1947       O  0.97851123  0.67759931  0.54099556    -0.71400
O1948       O  0.97875079  0.82318403  0.54043155    -0.71400
O1949       O  0.98067681  0.74971301  0.51016018    -0.71400
O1950       O  0.97359270  0.75107711  0.57114068    -0.71500
V1951       V  0.56310842  0.74581724  0.54300596     1.35200
V1952       V  0.97961083  0.75040224  0.54070788     1.35200
C1953       C  0.01291203  0.75110645  0.58285743     0.77900
C1954       C  0.02252231  0.74934186  0.50011312     0.77900
C1955       C  0.02062098  0.84742162  0.54120834     0.77800
C1956       C  0.02034091  0.65329565  0.54173364     0.77800
O1957       O  0.76390537  0.00214182  0.57243876    -0.71400
O1958       O  0.76675048  0.50411540  0.51032317    -0.71600
O1959       O  0.76572367  0.57550210  0.54163448    -0.71400
O1960       O  0.76570955  0.93068129  0.54112016    -0.71400
O1961       O  0.68268910  0.93056815  0.54055470    -0.71400
O1962       O  0.68271540  0.57561875  0.54084568    -0.71400
O1963       O  0.68376652  0.00385151  0.50985912    -0.71400
O1964       O  0.68099147  0.50247933  0.57155047    -0.71500
V1965       V  0.76395847  0.00308299  0.54136968     1.35200
V1966       V  0.68420411  0.00310751  0.54071852     1.35200
C1967       C  0.72169436  0.00188608  0.58253353     0.77900
C1968       C  0.72551009  0.00465603  0.49956973     0.77900
C1969       C  0.72429628  0.60015564  0.54117400     0.77800
C1970       C  0.72425923  0.90603775  0.54087570     0.77800
O1971       O  0.76565453  0.75284091  0.57211562    -0.71400
O1972       O  0.76681921  0.75374131  0.51013150    -0.71600
O1973       O  0.76606691  0.82567721  0.54118653    -0.71400
O1974       O  0.76610761  0.68060547  0.54107602    -0.71400
O1975       O  0.68307940  0.68069029  0.54071228    -0.71400
O1976       O  0.68303148  0.82550891  0.54095753    -0.71400
O1977       O  0.68382229  0.75383943  0.50994777    -0.71400
O1978       O  0.68266097  0.75260234  0.57173828    -0.71500
V1979       V  0.76457938  0.75316685  0.54111965     1.35200
V1980       V  0.68480173  0.75311769  0.54084397     1.35200
C1981       C  0.72386641  0.75262890  0.58245602     0.77900
C1982       C  0.72542871  0.75451115  0.49952801     0.77900
C1983       C  0.72447049  0.85017491  0.54101002     0.77800
C1984       C  0.72452063  0.65604942  0.54097768     0.77800
C1985       C  0.74650209  0.74656423  0.10600176    -0.16000
C1986       C  0.74893923  0.70889893  0.12066945    -0.31200
H1987       H  0.74519725  0.78588606  0.11164195     0.13000
H1988       H  0.75035058  0.66940107  0.11532008     0.13600
C1989       C  0.74700624  0.49266713  0.11861723    -0.16000
C1990       C  0.74362037  0.53509805  0.10633142    -0.31200
H1991       H  0.74850600  0.95393803  0.11098306     0.13000
H1992       H  0.74225356  0.57229314  0.11411721     0.13600
C1993       C  0.99757164  0.75255815  0.11991052    -0.16000
C1994       C  0.99625900  0.71306778  0.10619291    -0.31200
H1995       H  0.50030276  0.79175670  0.11400877     0.13000
H1996       H  0.99582239  0.67432863  0.11256852     0.13600
C1997       C  0.49015167  0.53751017  0.10701815    -0.16000
C1998       C  0.49020517  0.49518388  0.11932062    -0.31200
H1999       H  0.98935689  0.57468511  0.11409688     0.13000
H2000       H  0.48972779  0.95662271  0.11159083     0.13600
C2001       C  0.76053186  0.75968958  0.35623872    -0.16000
C2002       C  0.71850267  0.75934359  0.36876164    -0.31200
H2003       H  0.79811792  0.75959143  0.36375577     0.13000
H2004       H  0.68094214  0.75945289  0.36122374     0.13600
C2005       C  0.76177085  0.01056546  0.35606199    -0.16000
C2006       C  0.71981765  0.00979495  0.36866849    -0.31200
H2007       H  0.79929149  0.51054588  0.36349535     0.13000
H2008       H  0.68225467  0.00966197  0.36116419     0.13600
C2009       C  0.04204551  0.74818151  0.35599724    -0.16000
C2010       C  0.00193307  0.74831493  0.36964286    -0.31200
H2011       H  0.58292572  0.73989595  0.36086030     0.13000
H2012       H  0.96336954  0.74792816  0.36310254     0.13600
C2013       C  0.04375867  0.99278069  0.35558277    -0.16000
C2014       C  0.00381990  0.99570204  0.36926165    -0.31200
H2015       H  0.46734728  0.47722366  0.36286232     0.13000
H2016       H  0.96533417  0.99712347  0.36265943     0.13600
C2017       C  0.74014007  0.70999701  0.85547391    -0.16000
C2018       C  0.74283349  0.75027284  0.86896999    -0.31200
H2019       H  0.73873243  0.67153855  0.86206820     0.13000
H2020       H  0.74417950  0.78872519  0.86230568     0.13600
C2021       C  0.75097655  0.54257580  0.86875204    -0.16000
C2022       C  0.75827765  0.50033904  0.85674419    -0.31200
H2023       H  0.74814176  0.57954706  0.86082765     0.13000
H2024       H  0.76121924  0.96144609  0.86470424     0.13600
C2025       C  0.99048065  0.70884264  0.85594579    -0.16000
C2026       C  0.99343898  0.74913843  0.86933643    -0.31200
H2027       H  0.49049977  0.67001040  0.86233223     0.13000
H2028       H  0.99506440  0.78750532  0.86259561     0.13600
C2029       C  0.49735349  0.54332846  0.86933951    -0.16000
C2030       C  0.50166274  0.50099633  0.85717661    -0.31200
H2031       H  0.99748196  0.57992717  0.86114741     0.13000
H2032       H  0.50286513  0.96205032  0.86502358     0.13600
C2033       C  0.76425664  0.75321456  0.61902631    -0.16000
C2034       C  0.72213136  0.75238712  0.60646705    -0.31200
H2035       H  0.80185629  0.75412988  0.61158318     0.13000
H2036       H  0.68465285  0.75145211  0.61402830     0.13600
C2037       C  0.76061532  0.99937909  0.61919070    -0.16000
C2038       C  0.71884105  0.00094054  0.60655595    -0.31200
H2039       H  0.79821759  0.49833983  0.61171083     0.13000
H2040       H  0.68121449  0.00159321  0.61401154     0.13600
C2041       C  0.04317976  0.74969944  0.62123374    -0.16000
C2042       C  0.00541288  0.75132050  0.60661648    -0.31200
H2043       H  0.58149309  0.75227965  0.61584526     0.13000
H2044       H  0.96608960  0.75225098  0.61228885     0.13600
C2045       C  0.99859878  0.99586522  0.62037191    -0.16000
C2046       C  0.03785323  0.99858232  0.60653569    -0.31200
H2047       H  0.95975431  0.49397799  0.61399962     0.13000
H2048       H  0.57728721  0.99647228  0.61306608     0.13600
loop_ 
_geom_bond_atom_site_label_1 
_geom_bond_atom_site_label_2 
_geom_bond_distance 
_geom_bond_site_symmetry_2 
_ccdc_geom_bond_type 
O1           C11   1.258       .  A
O1          V521   1.885       .  S
O2         C1036   1.258       .  A
O2            V9   1.887   1_545  S
O3           C13   1.267       .  A
O3            V9   1.904   1_545  S
O4           C14   1.267       .  A
O4          V521   1.906       .  S
O5         C1038   1.260       .  A
O5          V522   1.892       .  S
O6         C1037   1.260       .  A
O6           V10   1.891   1_545  S
O7          C524   1.268       .  A
O7          V522   1.914       .  S
O8         C1547   1.271       .  A
O8           V10   1.918       .  S
V9          O513   1.885       .  S
V9          O516   1.906       .  S
V9         V1034   2.089       .  T
V10         O517   1.892       .  S
V10         O519   1.914       .  S
V10        V1033   2.089   1_455  T
C11        O1544   1.271       .  A
C11         C509   1.475       .  S
C12        O1026   1.258   1_455  A
C12         O519   1.268       .  A
C12          C68   1.457       .  S
C13        O1030   1.260       .  A
C13          C27   1.462       .  S
C14        O1029   1.261       .  A
C14          C28   1.465       .  S
O15        C1049   1.259       .  A
O15          V23   1.893       .  S
O16        C1050   1.260   1_455  A
O16          V23   1.890       .  S
O17        C1051   1.267       .  A
O17          V23   1.905       .  S
O18        C1052   1.267       .  A
O18          V23   1.906       .  S
O19          C28   1.261       .  A
O19          V24   1.894       .  S
O20          C27   1.260       .  A
O20          V24   1.891       .  S
O21          C26   1.265       .  A
O21          V24   1.910       .  S
O22          C25   1.270       .  A
O22          V24   1.910       .  S
V23        V1048   2.089   1_455  T
V24        V1047   2.089       .  T
C25        O1039   1.260       .  A
C25         C505   1.477       .  S
C26        O1040   1.260       .  A
C26          C82   1.459       .  S
C27        O1041   1.267       .  A
C28        O1042   1.267       .  A
O29          C39   1.268       .  A
O29          V37   1.910       .  S
O30          C40   1.267   1_565  A
O30         V549   1.910       .  S
O31          C41   1.262       .  A
O31         V549   1.894   1_545  S
O32          C42   1.262       .  A
O32          V37   1.897       .  S
O33          C42   1.265       .  A
O33          V38   1.902       .  S
O34          C41   1.265       .  A
O34         V550   1.901   1_545  S
O35         C552   1.260       .  A
O35          V38   1.894       .  S
O36         C551   1.261       .  A
O36         V550   1.893       .  S
V37         O542   1.910       .  S
V37         O543   1.894       .  S
V37          V38   2.089       .  T
V38         O546   1.900       .  S
V38         O548   1.893       .  S
C39         O548   1.261       .  A
C39         C501   1.475       .  S
C40         O547   1.260       .  A
C40          C96   1.461       .  S
C41          C56   1.462       .  S
C42          C55   1.465       .  S
O43          C53   1.265       .  A
O43          V51   1.898       .  S
O44          C54   1.262       .  A
O44          V51   1.898       .  S
O45          C55   1.265       .  A
O45          V51   1.902       .  S
O46          C56   1.265       .  A
O46          V51   1.900       .  S
O47          C56   1.262       .  A
O47          V52   1.895       .  S
O48          C55   1.263       .  A
O48          V52   1.897       .  S
O49          C54   1.264       .  A
O49          V52   1.902       .  S
O50          C53   1.265       .  A
O50          V52   1.904       .  S
V51          V52   2.089       .  T
C53         C497   1.478       .  S
C54         C110   1.459       .  S
O57          C67   1.266   1_545  A
O57          V65   1.902       .  S
O58        C1092   1.264       .  A
O58        V1089   1.904       .  S
O59          C69   1.264       .  A
O59        V1089   1.902       .  S
O60          C70   1.262   1_545  A
O60          V65   1.894       .  S
O61         C582   1.264       .  A
O61          V66   1.898       .  S
O62         C581   1.264       .  A
O62        V1090   1.901       .  S
O63         C580   1.262       .  A
O63          V66   1.896       .  S
O64        C1603   1.262       .  A
O64        V1090   1.896       .  S
V65        O1082   1.902       .  S
V65        O1083   1.899   1_455  S
V65         V578   2.090   1_545  T
V66        O1086   1.904   1_455  S
V66        O1088   1.895       .  S
V66         V577   2.090       .  T
C67        O1600   1.262       .  A
C67         C494   1.473       .  S
C68        O1082   1.264   1_565  A
C68         O575   1.262       .  A
C69         O574   1.264   1_545  A
C69          C98   1.468       .  S
C70         O573   1.264       .  A
C70          C97   1.460       .  S
O71          C81   1.264       .  A
O71          V79   1.903       .  S
O72        C1106   1.263       .  A
O72        V1103   1.898       .  S
O73          C83   1.265       .  A
O73        V1103   1.901   1_455  S
O74          C84   1.264       .  A
O74          V79   1.898       .  S
O75          C84   1.263       .  A
O75          V80   1.897       .  S
O76          C83   1.263       .  A
O76        V1104   1.897   1_455  S
O77          C82   1.263       .  A
O77          V80   1.901       .  S
O78        C1105   1.266       .  A
O78        V1104   1.898       .  S
V79        O1096   1.899       .  S
V79        O1097   1.900       .  S
V79          V80   2.089       .  T
V80        O1100   1.899       .  S
V80        O1102   1.899       .  S
C81        O1102   1.266       .  A
C81         C489   1.477       .  S
C82        O1096   1.263       .  A
C83         C112   1.464       .  S
C84         C111   1.462       .  S
O85          C95   1.266       .  A
O85          V93   1.903       .  S
O86          C96   1.264       .  A
O86          V93   1.904       .  S
O87          C97   1.263   1_545  A
O87          V93   1.895       .  S
O88          C98   1.265       .  A
O88          V93   1.903       .  S
O89         C610   1.264       .  A
O89          V94   1.900       .  S
O90         C609   1.263       .  A
O90          V94   1.896       .  S
O91         C608   1.263       .  A
O91          V94   1.900       .  S
O92         C607   1.263       .  A
O92          V94   1.898       .  S
V93         V606   2.089   1_545  T
V94         V605   2.089       .  T
C95         O604   1.263   1_545  A
C95         C486   1.475   1_545  S
C96         O603   1.263   1_545  A
C97         O602   1.263       .  A
C98         O601   1.264   1_545  A
O99         C109   1.264       .  A
O99         V107   1.903       .  S
O100        C110   1.264       .  A
O100        V107   1.901       .  S
O101        C111   1.263       .  A
O101        V107   1.896       .  S
O102        C112   1.263       .  A
O102        V107   1.899       .  S
O103        C112   1.264       .  A
O103        V108   1.900       .  S
O104        C111   1.264       .  A
O104        V108   1.898       .  S
O105        C110   1.262       .  A
O105        V108   1.900       .  S
O106        C109   1.265       .  A
O106        V108   1.896       .  S
V107        V108   2.090       .  T
C109        C481   1.475       .  S
O113        C635   1.255       .  A
O113        V633   1.876       .  S
O114       C1148   1.255       .  A
O114        V121   1.880       .  S
O115       C1149   1.270       .  A
O115        V121   1.912       .  S
O116       C1150   1.269       .  A
O116        V633   1.908   1_545  S
O117        C126   1.263       .  A
O117        V634   1.897   1_545  S
O118        C125   1.265       .  A
O118        V122   1.901       .  S
O119        C636   1.265       .  A
O119        V634   1.905       .  S
O120       C1147   1.265       .  A
O120        V122   1.907       .  S
V121        O625   1.876       .  S
V121        O628   1.908       .  S
V121       V1146   2.089       .  T
V122        O629   1.896       .  S
V122        O631   1.905       .  S
V122       V1145   2.089   1_455  T
C123        O625   1.255       .  A
C123       O1144   1.273       .  A
C123        C477   1.473       .  S
C124       O1138   1.264   1_455  A
C124        O631   1.265       .  A
C124        C292   1.467       .  S
C125       O1139   1.264   1_455  A
C125       C1163   1.468       .  S
C126       O1140   1.263   1_455  A
C126       C1164   1.460       .  S
O127       C1161   1.264       .  A
O127        V135   1.905       .  S
O128       C1162   1.264       .  A
O128        V135   1.901       .  S
O129       C1163   1.264       .  A
O129        V135   1.901       .  S
O130       C1164   1.263       .  A
O130        V135   1.895       .  S
O131        C140   1.258       .  A
O131        V136   1.887       .  S
O132        C139   1.259       .  A
O132        V136   1.891       .  S
O133        C138   1.268       .  A
O133        V136   1.915       .  S
O134        C137   1.271       .  A
O134        V136   1.915       .  S
V135       V1160   2.089   1_455  T
V136       V1159   2.089       .  T
C137       O1151   1.257       .  A
C137        C473   1.476       .  S
C138       O1152   1.258       .  A
C138        C306   1.457       .  S
C139       O1153   1.270       .  A
C139       C1149   1.468       .  S
C140       O1154   1.268       .  A
C140       C1150   1.461       .  S
O141        C663   1.273       .  A
O141        V661   1.923       .  S
O142        C152   1.270       .  A
O142        V149   1.919       .  S
O143        C153   1.258       .  A
O143        V149   1.886       .  S
O144        C154   1.259       .  A
O144        V661   1.891       .  S
O145        C154   1.269       .  A
O145        V662   1.909       .  S
O146        C153   1.268       .  A
O146        V150   1.908       .  S
O147        C664   1.256       .  A
O147        V662   1.881       .  S
O148        C151   1.256       .  A
O148        V150   1.881       .  S
V149        O653   1.923       .  S
V149        O656   1.891       .  S
V149        V150   2.089       .  T
V150        O657   1.908       .  S
V150        O659   1.881       .  S
C151        O653   1.273       .  A
C151        C469   1.477       .  S
C152        O659   1.256       .  A
C152        C320   1.460       .  S
C153        C167   1.461       .  S
C154        C168   1.465       .  S
O155        C165   1.272       .  A
O155        V163   1.919       .  S
O156        C166   1.268       .  A
O156        V163   1.916       .  S
O157        C167   1.259       .  A
O157        V163   1.888       .  S
O158        C168   1.259       .  A
O158        V163   1.889       .  S
O159        C168   1.269       .  A
O159        V164   1.910       .  S
O160        C167   1.268       .  A
O160        V164   1.906       .  S
O161        C166   1.258       .  A
O161        V164   1.886       .  S
O162        C165   1.257       .  A
O162        V164   1.886       .  S
V163        V164   2.089       .  T
C165        C465   1.478       .  S
C166        C334   1.460       .  S
O169        C179   1.272       .  A
O169        V177   1.917       .  S
O170        C692   1.268       .  A
O170        V689   1.920       .  S
O171        C181   1.261       .  A
O171        V689   1.894   1_545  S
O172        C182   1.260       .  A
O172        V177   1.892       .  S
O173       C1206   1.261       .  A
O173        V178   1.893       .  S
O174       C1205   1.262       .  A
O174        V690   1.894   1_545  S
O175       C1204   1.268       .  A
O175        V178   1.907       .  S
O176       C1715   1.268       .  A
O176        V690   1.913       .  S
V177        O682   1.921       .  S
V177        O683   1.894       .  S
V177       V1202   2.088       .  T
V178        O686   1.894       .  S
V178        O688   1.913       .  S
V178       V1201   2.089   1_455  T
C179       O1712   1.256       .  A
C179        C478   1.477       .  S
C180        O682   1.268       .  A
C180       O1199   1.260       .  A
C180        C404   1.468       .  S
C181       O1198   1.266       .  A
C181        C196   1.464       .  S
C182       O1197   1.266       .  A
C182        C195   1.462       .  S
O183        C193   1.256       .  A
O183        V191   1.877       .  S
O184        C194   1.259       .  A
O184        V191   1.874       .  S
O185        C195   1.266       .  A
O185        V191   1.903       .  S
O186        C196   1.267       .  A
O186        V191   1.905       .  S
O187       C1220   1.266       .  A
O187        V192   1.902       .  S
O188       C1219   1.265       .  A
O188        V192   1.901       .  S
O189       C1218   1.264       .  A
O189        V192   1.911       .  S
O190       C1217   1.266       .  A
O190        V192   1.906       .  S
V191       V1216   2.089       .  T
V192       V1215   2.089   1_455  T
C193       O1214   1.272       .  A
C193        C474   1.472       .  S
C194       O1213   1.268       .  A
C194        C418   1.467       .  S
C195       O1212   1.260       .  A
C196       O1211   1.260       .  A
O197        C207   1.256       .  A
O197        V205   1.882       .  S
O198        C720   1.258       .  A
O198        V717   1.880       .  S
O199        C209   1.268       .  A
O199        V717   1.908       .  S
O200        C210   1.268       .  A
O200        V205   1.908       .  S
O201        C210   1.259       .  A
O201        V206   1.889       .  S
O202        C209   1.259       .  A
O202        V718   1.888       .  S
O203        C208   1.271       .  A
O203        V206   1.923       .  S
O204        C719   1.273       .  A
O204        V718   1.923       .  S
V205        O710   1.880       .  S
V205        O711   1.908       .  S
V205        V206   2.089       .  T
V206        O714   1.888       .  S
V206        O716   1.923       .  S
C207        O716   1.273       .  A
C207        C470   1.477       .  S
C208        O710   1.258       .  A
C208        C432   1.469       .  S
C209        C224   1.463       .  S
C210        C223   1.464       .  S
O211        C221   1.273       .  A
O211        V219   1.923       .  S
O212        C222   1.270       .  A
O212        V219   1.920       .  S
O213        C223   1.259       .  A
O213        V219   1.889       .  S
O214        C224   1.259       .  A
O214        V219   1.889       .  S
O215        C224   1.268       .  A
O215        V220   1.907       .  S
O216        C223   1.268       .  A
O216        V220   1.908       .  S
O217        C222   1.258       .  A
O217        V220   1.882       .  S
O218        C221   1.257       .  A
O218        V220   1.882       .  S
V219        V220   2.089       .  T
C221        C466   1.477       .  S
C222        C446   1.468       .  S
O225        C235   1.260       .  A
O225        V233   1.894       .  S
O226       C1260   1.263       .  A
O226       V1257   1.895       .  S
O227        C237   1.264       .  A
O227       V1257   1.899       .  S
O228        C238   1.264       .  A
O228        V233   1.899   1_455  S
O229        C750   1.263       .  A
O229        V234   1.898   1_455  S
O230        C749   1.263       .  A
O230       V1258   1.897       .  S
O231        C748   1.266   1_554  A
O231        V234   1.907       .  S
O232       C1771   1.267       .  A
O232       V1258   1.908       .  S
V233       O1250   1.894       .  S
V233       O1251   1.899       .  S
V233        V746   2.089   1_545  T
V234       O1254   1.897       .  S
V234       O1256   1.908       .  S
V234        V745   2.088       .  T
C235       O1768   1.267   1_545  A
C235        C461   1.475       .  S
C236       O1250   1.262   1_556  A
C236        O743   1.266   1_546  A
C236        C348   1.466       .  S
C237        O742   1.263   1_545  A
C237        C266   1.463       .  S
C238        O741   1.263   1_545  A
C238        C265   1.464       .  S
O239       C1273   1.270       .  A
O239       V1271   1.914       .  S
O240        C250   1.269   1_554  A
O240        V247   1.912       .  S
O241        C251   1.260       .  A
O241        V247   1.891       .  S
O242        C252   1.259       .  A
O242       V1271   1.889   1_455  S
O243        C252   1.267       .  A
O243       V1272   1.907   1_455  S
O244        C251   1.267       .  A
O244        V248   1.906       .  S
O245       C1274   1.259   1_554  A
O245       V1272   1.888       .  S
O246        C249   1.257       .  A
O246        V248   1.885       .  S
V247       O1263   1.916       .  S
V247       O1266   1.891       .  S
V247        V248   2.089       .  T
V248       O1267   1.905       .  S
V248       O1269   1.888       .  S
C249       O1263   1.270       .  A
C249        C458   1.475       .  S
C250       O1269   1.259   1_556  A
C250        C362   1.466       .  S
C251        C280   1.464       .  S
C252        C279   1.463       .  S
O253        C263   1.264       .  A
O253        V261   1.899       .  S
O254        C264   1.263       .  A
O254        V261   1.899       .  S
O255        C265   1.263       .  A
O255        V261   1.897       .  S
O256        C266   1.263       .  A
O256        V261   1.896       .  S
O257        C778   1.264       .  A
O257        V262   1.898       .  S
O258        C777   1.264       .  A
O258        V262   1.901       .  S
O259        C776   1.265       .  A
O259        V262   1.904       .  S
O260        C775   1.265       .  A
O260        V262   1.905       .  S
V261        V774   2.089   1_545  T
V262        V773   2.089       .  T
C263        O772   1.265   1_545  A
C263        C454   1.476       .  S
C264        O771   1.265   1_545  A
C264        C376   1.468   1_554  S
C265        O770   1.264   1_545  A
C266        O769   1.264   1_545  A
O267        C277   1.255       .  A
O267        V275   1.874       .  S
O268        C278   1.257   1_554  A
O268        V275   1.875       .  S
O269        C279   1.267       .  A
O269        V275   1.905       .  S
O270        C280   1.267       .  A
O270        V275   1.906       .  S
O271        C280   1.259       .  A
O271        V276   1.891       .  S
O272        C279   1.259       .  A
O272        V276   1.891       .  S
O273        C278   1.270   1_554  A
O273        V276   1.923       .  S
O274        C277   1.272       .  A
O274        V276   1.924       .  S
V275        V276   2.089       .  T
C277        C449   1.471       .  S
C278        C390   1.466       .  S
O281        C803   1.261       .  A
O281        V289   1.895       .  S
O282       C1316   1.260       .  A
O282       V1313   1.892       .  S
O283        C293   1.268       .  A
O283       V1313   1.913       .  S
O284        C294   1.264       .  A
O284        V289   1.897   1_455  S
O285        C806   1.262   1_545  A
O285        V290   1.894   1_455  S
O286        C805   1.263   1_545  A
O286       V1314   1.900       .  S
O287        C804   1.267   1_545  A
O287        V290   1.912   1_455  S
O288       C1315   1.268   1_545  A
O288       V1314   1.911       .  S
V289       O1306   1.897   1_655  S
V289       O1307   1.898       .  S
V289        V802   2.089       .  T
V290       O1310   1.896       .  S
V290       O1312   1.907       .  S
V290        V801   2.089   1_545  T
C291        O793   1.262       .  A
C291       O1312   1.268   1_565  A
C291        C462   1.476       .  S
C292       O1306   1.262       .  A
C292        O799   1.267       .  A
C293        O798   1.263       .  A
C293        C321   1.475       .  S
C294        O797   1.262       .  A
C294        C322   1.459       .  S
O295       C1329   1.271       .  A
O295       V1327   1.918   1_655  S
O296        C306   1.267       .  A
O296        V303   1.912       .  S
O297        C307   1.260       .  A
O297        V303   1.890       .  S
O298        C308   1.259       .  A
O298       V1327   1.889       .  S
O299        C308   1.268       .  A
O299       V1328   1.909       .  S
O300        C307   1.266       .  A
O300        V304   1.898       .  S
O301       C1330   1.258       .  A
O301       V1328   1.886       .  S
O302        C305   1.258       .  A
O302        V304   1.885       .  S
V303       O1319   1.916       .  S
V303       O1322   1.894       .  S
V303        V304   2.090       .  T
V304       O1323   1.906       .  S
V304       O1325   1.887       .  S
C305       O1319   1.271       .  A
C305        C457   1.475       .  S
C306       O1325   1.258       .  A
C307        C335   1.457       .  S
C308        C336   1.464       .  S
O309        C319   1.264   1_545  A
O309        V317   1.896       .  S
O310        C832   1.261       .  A
O310        V317   1.897       .  S
O311        C833   1.267   1_545  A
O311        V317   1.908       .  S
O312        C834   1.264   1_545  A
O312        V317   1.898       .  S
O313        C322   1.262       .  A
O313        V318   1.893       .  S
O314        C321   1.264       .  A
O314        V318   1.905       .  S
O315        C320   1.265       .  A
O315        V318   1.905       .  S
O316        C831   1.265       .  A
O316        V318   1.906       .  S
V317        V830   2.089   1_545  T
V318        V829   2.089       .  T
C319        O828   1.265       .  A
C319        C453   1.478       .  S
C320        O822   1.262       .  A
C321        O823   1.267       .  A
C322        O824   1.264       .  A
O323        C333   1.271       .  A
O323        V331   1.910       .  S
O324        C334   1.267       .  A
O324        V331   1.913       .  S
O325        C335   1.259       .  A
O325        V331   1.884       .  S
O326        C336   1.259       .  A
O326        V331   1.890       .  S
O327        C336   1.268       .  A
O327        V332   1.907       .  S
O328        C335   1.266       .  A
O328        V332   1.903       .  S
O329        C334   1.260       .  A
O329        V332   1.890       .  S
O330        C333   1.258       .  A
O330        V332   1.891       .  S
V331        V332   2.089       .  T
C333        C450   1.477       .  S
O337       C1371   1.263       .  A
O337       V1369   1.901       .  S
O338        C348   1.264       .  A
O338        V345   1.898       .  S
O339        C349   1.263       .  A
O339        V345   1.898   1_455  S
O340        C350   1.263       .  A
O340       V1369   1.898       .  S
O341        C862   1.264       .  A
O341       V1370   1.898       .  S
O342        C861   1.264       .  A
O342        V346   1.899   1_455  S
O343       C1884   1.264       .  A
O343       V1370   1.904       .  S
O344        C859   1.265       .  A
O344        V346   1.898       .  S
V345       O1361   1.901       .  S
V345       O1364   1.898       .  S
V345        V858   2.089   1_545  T
V346       O1365   1.898       .  S
V346       O1367   1.901       .  S
V346        V857   2.089       .  T
C347       O1361   1.263       .  A
C347        O856   1.265   1_545  A
C347        C493   1.474       .  S
C348       O1879   1.264   1_545  A
C349        O854   1.264   1_545  A
C349        C377   1.464       .  S
C350        O853   1.264   1_545  A
C350        C378   1.463       .  S
O351       C1385   1.267       .  A
O351       V1383   1.907       .  S
O352        C362   1.268       .  A
O352        V359   1.905       .  S
O353        C363   1.261       .  A
O353        V359   1.893       .  S
O354        C364   1.261       .  A
O354       V1383   1.894   1_455  S
O355        C364   1.266       .  A
O355       V1384   1.902   1_455  S
O356        C363   1.266       .  A
O356        V360   1.902       .  S
O357       C1386   1.260       .  A
O357       V1384   1.894       .  S
O358        C361   1.261       .  A
O358        V360   1.891       .  S
V359       O1375   1.909       .  S
V359       O1378   1.894       .  S
V359        V360   2.089       .  T
V360       O1379   1.903       .  S
V360       O1381   1.895       .  S
C361       O1375   1.267       .  A
C361        C490   1.473       .  S
C362       O1381   1.260       .  A
C363        C392   1.463       .  S
C364        C391   1.463       .  S
O365        C887   1.265       .  A
O365        V373   1.901       .  S
O366        C888   1.264       .  A
O366        V373   1.903       .  S
O367        C889   1.264       .  A
O367        V373   1.899       .  S
O368        C890   1.263       .  A
O368        V373   1.897       .  S
O369        C378   1.263       .  A
O369        V374   1.898       .  S
O370        C377   1.263       .  A
O370        V374   1.898       .  S
O371        C376   1.264       .  A
O371        V374   1.900       .  S
O372        C375   1.264       .  A
O372        V374   1.901       .  S
V373        V886   2.089       .  T
V374        V885   2.089   1_545  T
C375        O877   1.265   1_545  A
C375        C485   1.476       .  S
C376        O878   1.264   1_545  A
C377        O879   1.264   1_545  A
C378        O880   1.263   1_545  A
O379        C389   1.265       .  A
O379        V387   1.903       .  S
O380        C390   1.263       .  A
O380        V387   1.908       .  S
O381        C391   1.266       .  A
O381        V387   1.903       .  S
O382        C392   1.266       .  A
O382        V387   1.903       .  S
O383        C392   1.261       .  A
O383        V388   1.893       .  S
O384        C391   1.261       .  A
O384        V388   1.893       .  S
O385        C390   1.265       .  A
O385        V388   1.890       .  S
O386        C389   1.263       .  A
O386        V388   1.896       .  S
V387        V388   2.089       .  T
C389        C482   1.473       .  S
O393        C915   1.270       .  A
O393        V913   1.916       .  S
O394        C404   1.267       .  A
O394        V401   1.919       .  S
O395        C405   1.262       .  A
O395        V401   1.895       .  S
O396        C406   1.262       .  A
O396        V913   1.895   1_545  S
O397       C1430   1.267       .  A
O397        V914   1.906       .  S
O398       C1429   1.267       .  A
O398        V402   1.906       .  S
O399       C1940   1.259       .  A
O399        V914   1.889       .  S
O400       C1427   1.257       .  A
O400        V402   1.886       .  S
V401        O905   1.916       .  S
V401        O908   1.895       .  S
V401       V1426   2.089       .  T
V402        O909   1.906       .  S
V402        O911   1.889       .  S
V402       V1425   2.089   1_455  T
C403        O905   1.270       .  A
C403       O1424   1.257       .  A
C403        C510   1.475       .  S
C404       O1935   1.261       .  A
C405       O1422   1.265       .  A
C405        C419   1.463       .  S
C406       O1421   1.265       .  A
C406        C420   1.463       .  S
O407       C1441   1.272       .  A
O407        V415   1.925       .  S
O408       C1442   1.270       .  A
O408        V415   1.924       .  S
O409       C1443   1.259       .  A
O409        V415   1.890       .  S
O410       C1444   1.259       .  A
O410        V415   1.890       .  S
O411        C420   1.265       .  A
O411        V416   1.901       .  S
O412        C419   1.265       .  A
O412        V416   1.901       .  S
O413        C418   1.260       .  A
O413        V416   1.877       .  S
O414        C417   1.258       .  A
O414        V416   1.881       .  S
V415       V1440   2.089   1_455  T
V416       V1439   2.089       .  T
C417       O1431   1.271       .  A
C417        C506   1.473       .  S
C418       O1432   1.267       .  A
C419       O1433   1.262       .  A
C420       O1434   1.262       .  A
O421        C431   1.266       .  A
O421        V429   1.903       .  S
O422        C944   1.263       .  A
O422        V941   1.909       .  S
O423        C433   1.265       .  A
O423        V941   1.902       .  S
O424        C434   1.265       .  A
O424        V429   1.901       .  S
O425        C434   1.262       .  A
O425        V430   1.894       .  S
O426        C433   1.262       .  A
O426        V942   1.895       .  S
O427        C432   1.266       .  A
O427        V430   1.895       .  S
O428        C943   1.262       .  A
O428        V942   1.900       .  S
V429        O934   1.909       .  S
V429        O935   1.902       .  S
V429        V430   2.089       .  T
V430        O938   1.894       .  S
V430        O940   1.900       .  S
C431        O940   1.262       .  A
C431        C502   1.478       .  S
C432        O934   1.263       .  A
C433        C448   1.463       .  S
C434        C447   1.463       .  S
O435        C445   1.266       .  A
O435        V443   1.905       .  S
O436        C446   1.267       .  A
O436        V443   1.900       .  S
O437        C447   1.262       .  A
O437        V443   1.894       .  S
O438        C448   1.262       .  A
O438        V443   1.895       .  S
O439        C448   1.265       .  A
O439        V444   1.902       .  S
O440        C447   1.265       .  A
O440        V444   1.901       .  S
O441        C446   1.262       .  A
O441        V444   1.904       .  S
O442        C445   1.263       .  A
O442        V444   1.898       .  S
V443        V444   2.089       .  T
C445        C498   1.475       .  S
C449        C450   1.335       .  D
C449        H451   1.087       .  S
C450        H452   1.086       .  S
C453        C454   1.346   1_565  D
C453        H967   1.086       .  S
C454        H456   1.086       .  S
H455        C965   1.086       .  S
C457        C458   1.336       .  D
C457       H1483   1.087       .  S
C458        H460   1.087       .  S
H459       C1481   1.087       .  S
C461        C462   1.341   1_545  D
C461       H1487   1.087       .  S
C462        H976   1.087       .  S
H463       C1485   1.087       .  S
H464        C974   1.087       .  S
C465        C466   1.335       .  D
C465        H467   1.086       .  S
C466        H468   1.087       .  S
C469        C470   1.334       .  D
C469        H983   1.087       .  S
C470        H472   1.086       .  S
H471        C981   1.087       .  S
C473        C474   1.334       .  D
C473       H1499   1.086       .  S
C474        H476   1.087       .  S
H475       C1497   1.086       .  S
C477        C478   1.333       .  D
C477       H2015   1.093       .  S
C478        H480   1.093       .  S
H479       C2013   1.086       .  S
C481        C482   1.343       .  D
C481        H483   1.086       .  S
C482        H484   1.087       .  S
C485        C486   1.344   1_545  D
C485        H487   1.086       .  S
C486       H1000   1.087       .  S
H488        C998   1.087       .  S
C489        C490   1.342       .  D
C489       H1515   1.085       .  S
C490        H492   1.087       .  S
H491       C1513   1.085       .  S
C493        C494   1.342   1_645  D
C493       H1519   1.085       .  S
C494       H1008   1.087       .  S
H495       C1517   1.085       .  S
H496       C1006   1.087       .  S
C497        C498   1.344       .  D
C497        H499   1.086       .  S
C498        H500   1.086       .  S
C501        C502   1.342       .  D
C501       H1015   1.087       .  S
C502        H504   1.086       .  S
H503       C1013   1.087       .  S
C505        C506   1.337       .  D
C505       H1531   1.087       .  S
C506        H508   1.087       .  S
H507       C1529   1.086       .  S
C509        C510   1.336       .  D
C509       H1023   1.087       .  S
C510       H1536   1.087       .  S
H511       C1021   1.087       .  S
H512       C1534   1.087       .  S
O513        C523   1.258       .  A
O514       C1548   1.258       .  A
O514        V521   1.887       .  S
O515        C525   1.267       .  A
O515        V521   1.904       .  S
O516        C526   1.267       .  A
O517       C1550   1.260       .  A
O518       C1549   1.260       .  A
O518        V522   1.890       .  S
O520       C1035   1.271       .  A
O520        V522   1.918       .  S
V521       V1546   2.089       .  T
V522       V1545   2.089   1_455  T
C523       O1032   1.271       .  A
C523       C1021   1.475       .  S
C524       O1538   1.258   1_455  A
C524        C580   1.457       .  S
C525       O1542   1.260       .  A
C525        C539   1.461       .  S
C526       O1541   1.261       .  A
C526        C540   1.465       .  S
O527       C1561   1.259       .  A
O527        V535   1.893       .  S
O528       C1562   1.260   1_455  A
O528        V535   1.890       .  S
O529       C1563   1.267       .  A
O529        V535   1.905       .  S
O530       C1564   1.267       .  A
O530        V535   1.906       .  S
O531        C540   1.261       .  A
O531        V536   1.894       .  S
O532        C539   1.260       .  A
O532        V536   1.890       .  S
O533        C538   1.265       .  A
O533        V536   1.910       .  S
O534        C537   1.270       .  A
O534        V536   1.909       .  S
V535       V1560   2.089   1_455  T
V536       V1559   2.089       .  T
C537       O1551   1.259       .  A
C537       C1017   1.477       .  S
C538       O1552   1.261       .  A
C538        C594   1.459       .  S
C539       O1553   1.267       .  A
C540       O1554   1.267       .  A
O541        C551   1.268       .  A
O541        V549   1.911       .  S
O542        C552   1.267       .  A
O543        C553   1.262       .  A
O544        C554   1.262       .  A
O544        V549   1.896       .  S
O545        C554   1.265       .  A
O545        V550   1.902       .  S
O546        C553   1.265       .  A
O547        V550   1.894   1_545  S
V549        V550   2.089       .  T
C551       C1013   1.475       .  S
C552        C608   1.461       .  S
C553        C568   1.461       .  S
C554        C567   1.465       .  S
O555        C565   1.265       .  A
O555        V563   1.898       .  S
O556        C566   1.262       .  A
O556        V563   1.898       .  S
O557        C567   1.265       .  A
O557        V563   1.902       .  S
O558        C568   1.265       .  A
O558        V563   1.900       .  S
O559        C568   1.262       .  A
O559        V564   1.894       .  S
O560        C567   1.263       .  A
O560        V564   1.897       .  S
O561        C566   1.264       .  A
O561        V564   1.902       .  S
O562        C565   1.265       .  A
O562        V564   1.904       .  S
V563        V564   2.089       .  T
C565       C1009   1.477       .  S
C566        C622   1.459       .  S
O569        C579   1.266       .  A
O569        V577   1.903       .  S
O570       C1604   1.264       .  A
O570       V1601   1.904       .  S
O571        C581   1.264       .  A
O571       V1601   1.902       .  S
O572        C582   1.262       .  A
O572        V577   1.894       .  S
O573        V578   1.898       .  S
O574       V1602   1.900       .  S
O575        V578   1.897       .  S
O576       C1091   1.263   1_565  A
O576       V1602   1.897       .  S
V577       O1594   1.903       .  S
V577       O1595   1.899   1_455  S
V578       O1598   1.904   1_455  S
V578       O1600   1.896       .  S
C579       O1088   1.262       .  A
C579       C1006   1.472       .  S
C580       O1594   1.264       .  A
C581        C610   1.468       .  S
C582        C609   1.460       .  S
O583        C593   1.264       .  A
O583        V591   1.904       .  S
O584       C1618   1.263       .  A
O584       V1615   1.899       .  S
O585        C595   1.264       .  A
O585       V1615   1.901   1_455  S
O586        C596   1.264       .  A
O586        V591   1.897       .  S
O587        C596   1.263       .  A
O587        V592   1.897       .  S
O588        C595   1.263       .  A
O588       V1616   1.897   1_455  S
O589        C594   1.263       .  A
O589        V592   1.901       .  S
O590       C1617   1.266       .  A
O590       V1616   1.898       .  S
V591       O1608   1.900       .  S
V591       O1609   1.900       .  S
V591        V592   2.089       .  T
V592       O1612   1.899       .  S
V592       O1614   1.898       .  S
C593       O1614   1.265       .  A
C593       C1001   1.477       .  S
C594       O1608   1.264       .  A
C595        C624   1.464       .  S
C596        C623   1.462       .  S
O597        C607   1.266       .  A
O597        V605   1.904       .  S
O598        C608   1.264       .  A
O598        V605   1.904       .  S
O599        C609   1.263       .  A
O599        V605   1.895       .  S
O600        C610   1.265       .  A
O600        V605   1.903       .  S
O601        V606   1.900       .  S
O602        V606   1.896       .  S
O603        V606   1.900       .  S
O604        V606   1.899       .  S
C607        C998   1.475       .  S
O611        C621   1.264       .  A
O611        V619   1.904       .  S
O612        C622   1.264       .  A
O612        V619   1.901       .  S
O613        C623   1.263       .  A
O613        V619   1.896       .  S
O614        C624   1.263       .  A
O614        V619   1.899       .  S
O615        C624   1.264       .  A
O615        V620   1.900       .  S
O616        C623   1.264       .  A
O616        V620   1.898       .  S
O617        C622   1.262       .  A
O617        V620   1.899       .  S
O618        C621   1.264       .  A
O618        V620   1.896       .  S
V619        V620   2.090       .  T
C621        C993   1.475       .  S
O626       C1660   1.255       .  A
O626        V633   1.880       .  S
O627       C1661   1.270       .  A
O627        V633   1.911       .  S
O628       C1662   1.269       .  A
O629        C638   1.263       .  A
O630        C637   1.265       .  A
O630        V634   1.902       .  S
O632       C1659   1.265       .  A
O632        V634   1.907       .  S
V633       V1658   2.089       .  T
V634       V1657   2.089   1_455  T
C635       O1656   1.273       .  A
C635        C989   1.474       .  S
C636       O1650   1.264   1_455  A
C636        C804   1.466       .  S
C637       O1651   1.264   1_455  A
C637       C1675   1.468       .  S
C638       O1652   1.263   1_455  A
C638       C1676   1.459       .  S
O639       C1673   1.264       .  A
O639        V647   1.904       .  S
O640       C1674   1.264       .  A
O640        V647   1.901       .  S
O641       C1675   1.264       .  A
O641        V647   1.901       .  S
O642       C1676   1.262       .  A
O642        V647   1.894       .  S
O643        C652   1.258       .  A
O643        V648   1.887       .  S
O644        C651   1.259       .  A
O644        V648   1.890       .  S
O645        C650   1.268       .  A
O645        V648   1.915       .  S
O646        C649   1.271       .  A
O646        V648   1.915       .  S
V647       V1672   2.089   1_455  T
V648       V1671   2.089       .  T
C649       O1663   1.257       .  A
C649        C985   1.476       .  S
C650       O1664   1.258       .  A
C650        C818   1.457       .  S
C651       O1665   1.270       .  A
C651       C1661   1.468       .  S
C652       O1666   1.268       .  A
C652       C1662   1.460       .  S
O654        C664   1.270       .  A
O654        V661   1.919       .  S
O655        C665   1.258       .  A
O655        V661   1.886   1_565  S
O656        C666   1.259       .  A
O657        C666   1.269       .  A
O658        C665   1.268       .  A
O658        V662   1.908   1_565  S
O660        C663   1.256       .  A
O660        V662   1.881       .  S
V661        V662   2.089       .  T
C663        C981   1.477       .  S
C664        C832   1.460       .  S
C665        C679   1.461       .  S
C666        C680   1.465       .  S
O667        C677   1.272       .  A
O667        V675   1.919       .  S
O668        C678   1.269       .  A
O668        V675   1.916       .  S
O669        C679   1.259       .  A
O669        V675   1.888       .  S
O670        C680   1.259       .  A
O670        V675   1.888       .  S
O671        C680   1.269       .  A
O671        V676   1.910       .  S
O672        C679   1.268       .  A
O672        V676   1.906       .  S
O673        C678   1.258       .  A
O673        V676   1.886       .  S
O674        C677   1.257       .  A
O674        V676   1.885       .  S
V675        V676   2.089       .  T
C677        C977   1.477       .  S
C678        C846   1.460       .  S
O681        C691   1.272       .  A
O681        V689   1.917       .  S
O683        C693   1.261       .  A
O684        C694   1.260       .  A
O684        V689   1.892       .  S
O685       C1718   1.261       .  A
O685        V690   1.894       .  S
O686       C1717   1.262       .  A
O687       C1716   1.268       .  A
O687        V690   1.907       .  S
O688       C1203   1.268       .  A
V689       V1714   2.088       .  T
V690       V1713   2.089   1_455  T
C691       O1200   1.256       .  A
C691        C990   1.477       .  S
C692       O1711   1.260       .  A
C692        C916   1.468       .  S
C693       O1710   1.266       .  A
C693        C708   1.464       .  S
C694       O1709   1.266       .  A
C694        C707   1.462       .  S
O695        C705   1.256       .  A
O695        V703   1.877       .  S
O696        C706   1.259       .  A
O696        V703   1.874       .  S
O697        C707   1.266       .  A
O697        V703   1.903       .  S
O698        C708   1.266       .  A
O698        V703   1.905       .  S
O699       C1732   1.266       .  A
O699        V704   1.902       .  S
O700       C1731   1.265       .  A
O700        V704   1.901       .  S
O701       C1730   1.264       .  A
O701        V704   1.911       .  S
O702       C1729   1.266       .  A
O702        V704   1.906       .  S
V703       V1728   2.089       .  T
V704       V1727   2.089   1_455  T
C705       O1726   1.272       .  A
C705        C986   1.472       .  S
C706       O1725   1.268       .  A
C706        C930   1.467       .  S
C707       O1724   1.260       .  A
C708       O1723   1.260       .  A
O709        C719   1.256       .  A
O709        V717   1.882       .  S
O711        C721   1.268       .  A
O712        C722   1.268       .  A
O712        V717   1.908   1_565  S
O713        C722   1.259       .  A
O713        V718   1.889   1_565  S
O714        C721   1.259       .  A
O715        C720   1.271       .  A
O715        V718   1.923       .  S
V717        V718   2.089       .  T
C719        C982   1.477       .  S
C720        C944   1.469       .  S
C721        C736   1.463       .  S
C722        C735   1.464       .  S
O723        C733   1.272       .  A
O723        V731   1.923       .  S
O724        C734   1.270       .  A
O724        V731   1.920       .  S
O725        C735   1.259       .  A
O725        V731   1.889       .  S
O726        C736   1.259       .  A
O726        V731   1.889       .  S
O727        C736   1.268       .  A
O727        V732   1.907       .  S
O728        C735   1.269       .  A
O728        V732   1.908       .  S
O729        C734   1.258       .  A
O729        V732   1.882       .  S
O730        C733   1.257       .  A
O730        V732   1.881       .  S
V731        V732   2.089       .  T
C733        C978   1.476       .  S
C734        C958   1.468       .  S
O737        C747   1.260       .  A
O737        V745   1.893       .  S
O738       C1772   1.262       .  A
O738       V1769   1.895       .  S
O739        C749   1.264       .  A
O739       V1769   1.899       .  S
O740        C750   1.264       .  A
O740        V745   1.899   1_455  S
O741        V746   1.898   1_455  S
O742       V1770   1.897       .  S
O743        V746   1.907       .  S
O744       C1259   1.267   1_565  A
O744       V1770   1.908       .  S
V745       O1762   1.894       .  S
V745       O1763   1.899       .  S
V746       O1766   1.897       .  S
V746       O1768   1.908       .  S
C747       O1256   1.267       .  A
C747        C973   1.475       .  S
C748       O1762   1.262   1_556  A
C748        C860   1.466       .  S
C749        C778   1.463       .  S
C750        C777   1.464       .  S
O751       C1785   1.270       .  A
O751       V1783   1.915       .  S
O752        C762   1.269   1_554  A
O752        V759   1.913       .  S
O753        C763   1.260       .  A
O753        V759   1.891       .  S
O754        C764   1.259       .  A
O754       V1783   1.889   1_455  S
O755        C764   1.267       .  A
O755       V1784   1.907   1_455  S
O756        C763   1.267       .  A
O756        V760   1.906       .  S
O757       C1786   1.259   1_554  A
O757       V1784   1.888       .  S
O758        C761   1.257       .  A
O758        V760   1.885       .  S
V759       O1775   1.917       .  S
V759       O1778   1.891       .  S
V759        V760   2.088       .  T
V760       O1779   1.905       .  S
V760       O1781   1.887       .  S
C761       O1775   1.270       .  A
C761        C970   1.475       .  S
C762       O1781   1.259   1_556  A
C762        C874   1.467       .  S
C763        C792   1.464       .  S
C764        C791   1.463       .  S
O765        C775   1.263       .  A
O765        V773   1.899       .  S
O766        C776   1.263       .  A
O766        V773   1.898       .  S
O767        C777   1.263       .  A
O767        V773   1.897       .  S
O768        C778   1.263       .  A
O768        V773   1.896       .  S
O769        V774   1.898       .  S
O770        V774   1.901       .  S
O771        V774   1.904       .  S
O772        V774   1.905       .  S
C775        C966   1.476       .  S
C776        C888   1.468   1_554  S
O779        C789   1.256       .  A
O779        V787   1.875       .  S
O780        C790   1.257   1_554  A
O780        V787   1.875       .  S
O781        C791   1.267       .  A
O781        V787   1.905       .  S
O782        C792   1.267       .  A
O782        V787   1.906       .  S
O783        C792   1.259       .  A
O783        V788   1.891       .  S
O784        C791   1.259       .  A
O784        V788   1.892       .  S
O785        C790   1.270   1_554  A
O785        V788   1.922       .  S
O786        C789   1.272       .  A
O786        V788   1.924       .  S
V787        V788   2.089       .  T
C789        C961   1.471       .  S
C790        C902   1.466       .  S
O793        V801   1.895       .  S
O794       C1828   1.260       .  A
O794       V1825   1.892       .  S
O795        C805   1.268       .  A
O795       V1825   1.913       .  S
O796        C806   1.264       .  A
O796        V801   1.897   1_455  S
O797        V802   1.894   1_455  S
O798       V1826   1.900       .  S
O799        V802   1.912   1_455  S
O800       C1827   1.268       .  A
O800       V1826   1.911       .  S
V801       O1818   1.898   1_655  S
V801       O1819   1.898       .  S
V802       O1822   1.896       .  S
V802       O1824   1.908       .  S
C803       O1824   1.268       .  A
C803        C974   1.476       .  S
C804       O1818   1.262       .  A
C805        C833   1.475       .  S
C806        C834   1.459       .  S
O807       C1841   1.271       .  A
O807       V1839   1.919   1_655  S
O808        C818   1.268       .  A
O808        V815   1.913       .  S
O809        C819   1.259       .  A
O809        V815   1.890       .  S
O810        C820   1.259       .  A
O810       V1839   1.889       .  S
O811        C820   1.268       .  A
O811       V1840   1.909       .  S
O812        C819   1.266       .  A
O812        V816   1.898       .  S
O813       C1842   1.258       .  A
O813       V1840   1.885       .  S
O814        C817   1.258       .  A
O814        V816   1.885       .  S
V815       O1831   1.917       .  S
V815       O1834   1.894       .  S
V815        V816   2.089       .  T
V816       O1835   1.906       .  S
V816       O1837   1.886       .  S
C817       O1831   1.271       .  A
C817        C969   1.475       .  S
C818       O1837   1.258       .  A
C819        C847   1.457       .  S
C820        C848   1.464       .  S
O821        C831   1.264       .  A
O821        V829   1.897       .  S
O822        V829   1.897       .  S
O823        V829   1.908       .  S
O824        V829   1.898       .  S
O825        C834   1.262       .  A
O825        V830   1.893       .  S
O826        C833   1.264       .  A
O826        V830   1.905       .  S
O827        C832   1.265   1_565  A
O827        V830   1.905       .  S
O828        V830   1.907       .  S
C831        C965   1.478       .  S
O835        C845   1.271       .  A
O835        V843   1.910       .  S
O836        C846   1.267       .  A
O836        V843   1.912       .  S
O837        C847   1.259       .  A
O837        V843   1.884       .  S
O838        C848   1.259       .  A
O838        V843   1.890       .  S
O839        C848   1.268       .  A
O839        V844   1.907       .  S
O840        C847   1.266       .  A
O840        V844   1.903       .  S
O841        C846   1.260       .  A
O841        V844   1.890       .  S
O842        C845   1.259       .  A
O842        V844   1.892       .  S
V843        V844   2.089       .  T
C845        C962   1.477       .  S
O849       C1883   1.263       .  A
O849       V1881   1.901       .  S
O850        C860   1.264       .  A
O850        V857   1.898       .  S
O851        C861   1.263       .  A
O851        V857   1.898   1_455  S
O852        C862   1.263       .  A
O852       V1881   1.898       .  S
O853       V1882   1.898       .  S
O854        V858   1.899   1_455  S
O855       C1372   1.264   1_565  A
O855       V1882   1.904       .  S
O856        V858   1.898       .  S
V857       O1873   1.901       .  S
V857       O1876   1.898       .  S
V858       O1877   1.898       .  S
V858       O1879   1.902       .  S
C859       O1873   1.263       .  A
C859       C1005   1.474       .  S
C860       O1367   1.264       .  A
C861        C889   1.464       .  S
C862        C890   1.463       .  S
O863       C1897   1.267       .  A
O863       V1895   1.907       .  S
O864        C874   1.268       .  A
O864        V871   1.905       .  S
O865        C875   1.261       .  A
O865        V871   1.893       .  S
O866        C876   1.261       .  A
O866       V1895   1.894   1_455  S
O867        C876   1.266       .  A
O867       V1896   1.902   1_455  S
O868        C875   1.266       .  A
O868        V872   1.902       .  S
O869       C1898   1.260       .  A
O869       V1896   1.895       .  S
O870        C873   1.261       .  A
O870        V872   1.892       .  S
V871       O1887   1.909       .  S
V871       O1890   1.894       .  S
V871        V872   2.089       .  T
V872       O1891   1.903       .  S
V872       O1893   1.896       .  S
C873       O1887   1.267       .  A
C873       C1002   1.474       .  S
C874       O1893   1.261       .  A
C875        C904   1.463       .  S
C876        C903   1.463       .  S
O877        V885   1.901       .  S
O878        V885   1.903       .  S
O879        V885   1.899       .  S
O880        V885   1.897       .  S
O881        C890   1.263       .  A
O881        V886   1.898       .  S
O882        C889   1.263       .  A
O882        V886   1.898       .  S
O883        C888   1.264       .  A
O883        V886   1.900       .  S
O884        C887   1.264       .  A
O884        V886   1.902       .  S
C887        C997   1.476       .  S
O891        C901   1.265       .  A
O891        V899   1.903       .  S
O892        C902   1.263       .  A
O892        V899   1.908       .  S
O893        C903   1.265       .  A
O893        V899   1.902       .  S
O894        C904   1.266       .  A
O894        V899   1.902       .  S
O895        C904   1.261       .  A
O895        V900   1.893       .  S
O896        C903   1.261       .  A
O896        V900   1.894       .  S
O897        C902   1.265       .  A
O897        V900   1.891       .  S
O898        C901   1.263       .  A
O898        V900   1.896       .  S
V899        V900   2.089       .  T
C901        C994   1.473       .  S
O906        C916   1.267       .  A
O906        V913   1.919       .  S
O907        C917   1.262       .  A
O907        V913   1.895       .  S
O908        C918   1.262       .  A
O909       C1942   1.267       .  A
O910       C1941   1.267       .  A
O910        V914   1.906   1_565  S
O911       C1428   1.259       .  A
O912       C1939   1.257   1_545  A
O912        V914   1.886       .  S
V913       V1938   2.089       .  T
V914       V1937   2.089   1_455  T
C915       O1936   1.257       .  A
C915       C1022   1.476       .  S
C916       O1423   1.261       .  A
C917       O1934   1.265       .  A
C917        C931   1.463       .  S
C918       O1933   1.265       .  A
C918        C932   1.463       .  S
O919       C1953   1.272       .  A
O919        V927   1.925       .  S
O920       C1954   1.270       .  A
O920        V927   1.923       .  S
O921       C1955   1.259       .  A
O921        V927   1.890       .  S
O922       C1956   1.259       .  A
O922        V927   1.890       .  S
O923        C932   1.265       .  A
O923        V928   1.901       .  S
O924        C931   1.265       .  A
O924        V928   1.902       .  S
O925        C930   1.260       .  A
O925        V928   1.877       .  S
O926        C929   1.257       .  A
O926        V928   1.881       .  S
V927       V1952   2.089   1_455  T
V928       V1951   2.089       .  T
C929       O1943   1.271       .  A
C929       C1018   1.473       .  S
C930       O1944   1.267       .  A
C931       O1945   1.262       .  A
C932       O1946   1.262       .  A
O933        C943   1.266       .  A
O933        V941   1.903       .  S
O935        C945   1.265       .  A
O936        C946   1.265       .  A
O936        V941   1.901   1_565  S
O937        C946   1.262       .  A
O937        V942   1.894   1_565  S
O938        C945   1.262       .  A
O939        C944   1.266       .  A
O939        V942   1.895       .  S
V941        V942   2.089       .  T
C943       C1014   1.478       .  S
C945        C960   1.463       .  S
C946        C959   1.463       .  S
O947        C957   1.266       .  A
O947        V955   1.904       .  S
O948        C958   1.267       .  A
O948        V955   1.900       .  S
O949        C959   1.262       .  A
O949        V955   1.894       .  S
O950        C960   1.262       .  A
O950        V955   1.895       .  S
O951        C960   1.265       .  A
O951        V956   1.902       .  S
O952        C959   1.265       .  A
O952        V956   1.901       .  S
O953        C958   1.262       .  A
O953        V956   1.904       .  S
O954        C957   1.263       .  A
O954        V956   1.898       .  S
V955        V956   2.089       .  T
C957       C1010   1.475       .  S
C961        C962   1.335       .  D
C961        H963   1.087       .  S
C962        H964   1.086       .  S
C965        C966   1.345       .  D
C966        H968   1.086       .  S
C969        C970   1.336       .  D
C969       H1995   1.087       .  S
C970        H972   1.087       .  S
H971       C1993   1.087       .  S
C973        C974   1.340       .  D
C973       H1999   1.087       .  S
H975       C1997   1.087       .  S
C977        C978   1.335       .  D
C977        H979   1.086       .  S
C978        H980   1.087       .  S
C981        C982   1.334       .  D
C982        H984   1.086       .  S
C985        C986   1.334       .  D
C985       H2011   1.086       .  S
C986        H988   1.087       .  S
H987       C2009   1.086       .  S
C989        C990   1.334       .  D
C989       H1503   1.087       .  S
C990        H992   1.087       .  S
H991       C1501   1.086       .  S
C993        C994   1.343       .  D
C993        H995   1.086       .  S
C994        H996   1.087       .  S
C997        C998   1.343       .  D
C997        H999   1.086       .  S
C1001      C1002   1.342       .  D
C1001      H2027   1.084       .  S
C1002      H1004   1.087       .  S
H1003      C2025   1.085       .  S
C1005      C1006   1.342   1_655  D
C1005      H2031   1.085       .  S
H1007      C2029   1.085       .  S
C1009      C1010   1.344       .  D
C1009      H1011   1.086       .  S
C1010      H1012   1.086       .  S
C1013      C1014   1.342   1_565  D
C1014      H1016   1.086       .  S
C1017      C1018   1.337       .  D
C1017      H2043   1.087       .  S
C1018      H1020   1.087       .  S
H1019      C2041   1.086       .  S
C1021      C1022   1.336       .  D
C1022      H2048   1.087       .  S
H1024      C2046   1.087   1_545  S
O1025      C1035   1.258   1_655  A
O1025      V1545   1.884       .  S
O1026      V1033   1.884       .  S
O1027      C1037   1.267   1_655  A
O1027      V1033   1.905   1_545  S
O1028      C1038   1.267   1_655  A
O1028      V1545   1.907       .  S
O1029      V1546   1.892       .  S
O1030      V1034   1.892   1_545  S
O1031      C1548   1.268       .  A
O1031      V1546   1.913       .  S
O1032      V1034   1.917       .  S
V1033      O1537   1.884       .  S
V1033      O1540   1.906       .  S
V1034      O1541   1.893       .  S
V1034      O1543   1.913   1_565  S
C1035      C1533   1.475   1_455  S
C1036      O1543   1.268       .  A
C1036      C1092   1.459       .  S
C1037      C1051   1.462       .  S
C1038      C1052   1.464       .  S
O1039      V1047   1.892       .  S
O1040      V1047   1.890       .  S
O1041      V1047   1.905       .  S
O1042      V1047   1.905       .  S
O1043      C1052   1.260   1_655  A
O1043      V1048   1.893       .  S
O1044      C1051   1.260   1_655  A
O1044      V1048   1.891       .  S
O1045      C1050   1.266       .  A
O1045      V1048   1.910       .  S
O1046      C1049   1.270   1_655  A
O1046      V1048   1.910       .  S
C1049      C1529   1.479       .  S
C1050      C1106   1.458       .  S
O1053      C1063   1.268       .  A
O1053      V1061   1.910       .  S
O1054      C1064   1.267       .  A
O1054      V1573   1.911   1_545  S
O1055      C1065   1.262       .  A
O1055      V1573   1.894   1_545  S
O1056      C1066   1.262       .  A
O1056      V1061   1.896       .  S
O1057      C1066   1.266       .  A
O1057      V1062   1.902       .  S
O1058      C1065   1.265       .  A
O1058      V1574   1.901   1_545  S
O1059      C1576   1.261       .  A
O1059      V1062   1.895       .  S
O1060      C1575   1.262       .  A
O1060      V1574   1.896       .  S
V1061      O1566   1.911       .  S
V1061      O1567   1.894       .  S
V1061      V1062   2.089       .  T
V1062      O1570   1.901       .  S
V1062      O1572   1.896       .  S
C1063      O1572   1.262       .  A
C1063      C1525   1.478       .  S
C1064      O1571   1.261       .  A
C1064      C1120   1.463       .  S
C1065      C1080   1.462       .  S
C1066      C1079   1.465       .  S
O1067      C1077   1.264       .  A
O1067      V1075   1.897       .  S
O1068      C1078   1.261       .  A
O1068      V1075   1.898       .  S
O1069      C1079   1.266       .  A
O1069      V1075   1.903       .  S
O1070      C1080   1.265       .  A
O1070      V1075   1.901       .  S
O1071      C1080   1.262       .  A
O1071      V1076   1.894       .  S
O1072      C1079   1.262       .  A
O1072      V1076   1.896       .  S
O1073      C1078   1.266       .  A
O1073      V1076   1.906       .  S
O1074      C1077   1.266       .  A
O1074      V1076   1.908       .  S
V1075      V1076   2.089       .  T
C1077      C1521   1.480       .  S
C1078      C1134   1.462       .  S
O1081      C1091   1.266       .  A
O1081      V1089   1.904       .  S
O1083      C1093   1.264   1_545  A
O1084      C1094   1.263       .  A
O1084      V1089   1.898       .  S
O1085      C1606   1.263       .  A
O1085      V1090   1.896       .  S
O1086      C1605   1.265       .  A
O1087      C1604   1.262       .  A
O1087      V1090   1.896       .  S
V1089      V1602   2.090   1_545  T
V1090      V1601   2.090       .  T
C1091      C1518   1.475   1_545  S
C1092      O1599   1.262   1_545  A
C1093      O1598   1.265       .  A
C1093      C1122   1.468       .  S
C1094      O1597   1.263   1_545  A
C1094      C1121   1.461       .  S
O1095      C1105   1.263       .  A
O1095      V1103   1.900       .  S
O1097      C1107   1.264       .  A
O1098      C1108   1.264       .  A
O1098      V1103   1.898       .  S
O1099      C1108   1.263       .  A
O1099      V1104   1.896       .  S
O1100      C1107   1.264       .  A
O1101      C1106   1.263       .  A
O1101      V1104   1.902       .  S
V1103      V1104   2.090       .  T
C1105      C1513   1.475       .  S
C1107      C1136   1.465       .  S
C1108      C1135   1.461       .  S
O1109      C1119   1.266   1_545  A
O1109      V1117   1.903       .  S
O1110      C1120   1.264       .  A
O1110      V1117   1.904       .  S
O1111      C1121   1.263       .  A
O1111      V1117   1.897       .  S
O1112      C1122   1.265   1_545  A
O1112      V1117   1.901       .  S
O1113      C1634   1.264       .  A
O1113      V1118   1.901       .  S
O1114      C1633   1.263       .  A
O1114      V1118   1.896       .  S
O1115      C1632   1.263       .  A
O1115      V1118   1.901       .  S
O1116      C1631   1.263       .  A
O1116      V1118   1.899       .  S
V1117      V1630   2.089   1_545  T
V1118      V1629   2.089       .  T
C1119      O1628   1.264       .  A
C1119      C1510   1.476       .  S
C1120      O1627   1.263   1_545  A
C1121      O1626   1.263   1_545  A
C1122      O1625   1.264       .  A
O1123      C1133   1.264       .  A
O1123      V1131   1.904       .  S
O1124      C1134   1.264       .  A
O1124      V1131   1.902       .  S
O1125      C1135   1.263       .  A
O1125      V1131   1.895       .  S
O1126      C1136   1.263       .  A
O1126      V1131   1.898       .  S
O1127      C1136   1.265       .  A
O1127      V1132   1.901       .  S
O1128      C1135   1.264       .  A
O1128      V1132   1.898       .  S
O1129      C1134   1.263       .  A
O1129      V1132   1.902       .  S
O1130      C1133   1.265       .  A
O1130      V1132   1.898       .  S
V1131      V1132   2.089       .  T
C1133      C1505   1.477       .  S
O1137      C1659   1.266   1_655  A
O1137      V1657   1.901       .  S
O1138      V1145   1.906       .  S
O1139      V1145   1.900       .  S
O1140      V1657   1.895   1_545  S
O1141      C1150   1.257       .  A
O1141      V1658   1.885   1_545  S
O1142      C1149   1.259       .  A
O1142      V1146   1.892       .  S
O1143      C1660   1.271       .  A
O1143      V1658   1.921       .  S
O1144      V1146   1.926       .  S
V1145      O1649   1.901       .  S
V1145      O1652   1.895       .  S
V1146      O1653   1.884       .  S
V1146      O1655   1.921       .  S
C1147      O1649   1.266   1_455  A
C1147      C1501   1.482       .  S
C1148      O1655   1.271       .  A
C1148      C1316   1.460       .  S
O1151      V1159   1.886       .  S
O1152      V1159   1.883       .  S
O1153      V1159   1.912       .  S
O1154      V1159   1.906       .  S
O1155      C1164   1.264   1_655  A
O1155      V1160   1.897       .  S
O1156      C1163   1.265   1_655  A
O1156      V1160   1.902       .  S
O1157      C1162   1.262   1_655  A
O1157      V1160   1.900       .  S
O1158      C1161   1.265   1_655  A
O1158      V1160   1.898       .  S
C1161      C1497   1.478       .  S
C1162      C1330   1.459       .  S
O1165      C1687   1.266       .  A
O1165      V1685   1.902       .  S
O1166      C1176   1.263       .  A
O1166      V1173   1.904       .  S
O1167      C1177   1.264       .  A
O1167      V1173   1.897       .  S
O1168      C1178   1.264       .  A
O1168      V1685   1.900       .  S
O1169      C1178   1.264       .  A
O1169      V1686   1.899       .  S
O1170      C1177   1.263       .  A
O1170      V1174   1.896       .  S
O1171      C1688   1.264       .  A
O1171      V1686   1.902       .  S
O1172      C1175   1.264       .  A
O1172      V1174   1.903       .  S
V1173      O1677   1.902       .  S
V1173      O1680   1.900       .  S
V1173      V1174   2.089       .  T
V1174      O1681   1.898       .  S
V1174      O1683   1.903       .  S
C1175      O1677   1.266       .  A
C1175      C1493   1.479       .  S
C1176      O1683   1.264       .  A
C1176      C1344   1.463       .  S
C1177      C1191   1.461       .  S
C1178      C1192   1.465       .  S
O1179      C1189   1.263       .  A
O1179      V1187   1.900       .  S
O1180      C1190   1.262       .  A
O1180      V1187   1.898       .  S
O1181      C1191   1.264       .  A
O1181      V1187   1.897       .  S
O1182      C1192   1.264       .  A
O1182      V1187   1.900       .  S
O1183      C1192   1.264       .  A
O1183      V1188   1.899       .  S
O1184      C1191   1.263       .  A
O1184      V1188   1.896       .  S
O1185      C1190   1.264       .  A
O1185      V1188   1.902       .  S
O1186      C1189   1.266       .  A
O1186      V1188   1.903       .  S
V1187      V1188   2.090       .  T
C1189      C1489   1.476       .  S
C1190      C1358   1.458       .  S
O1193      C1203   1.262   1_655  A
O1193      V1201   1.894       .  S
O1194      C1716   1.261   1_655  A
O1194      V1713   1.898       .  S
O1195      C1205   1.266   1_655  A
O1195      V1713   1.902   1_545  S
O1196      C1206   1.266   1_655  A
O1196      V1201   1.902       .  S
O1197      V1202   1.904       .  S
O1198      V1714   1.903   1_545  S
O1199      V1202   1.879       .  S
O1200      V1714   1.885       .  S
V1201      O1706   1.898       .  S
V1201      O1707   1.902       .  S
V1202      O1710   1.903       .  S
V1202      O1712   1.885       .  S
C1203      C1502   1.477       .  S
C1204      O1706   1.261   1_455  A
C1204      C1428   1.469       .  S
C1205      C1220   1.463       .  S
C1206      C1219   1.463       .  S
O1207      C1217   1.263   1_655  A
O1207      V1215   1.896       .  S
O1208      C1218   1.265   1_655  A
O1208      V1215   1.892       .  S
O1209      C1219   1.262   1_655  A
O1209      V1215   1.894       .  S
O1210      C1220   1.262   1_655  A
O1210      V1215   1.894       .  S
O1211      V1216   1.892       .  S
O1212      V1216   1.892       .  S
O1213      V1216   1.924       .  S
O1214      V1216   1.922       .  S
C1217      C1498   1.475       .  S
C1218      C1442   1.469       .  S
O1221      C1231   1.263       .  A
O1221      V1229   1.899       .  S
O1222      C1744   1.264       .  A
O1222      V1741   1.899       .  S
O1223      C1233   1.263       .  A
O1223      V1741   1.897       .  S
O1224      C1234   1.263       .  A
O1224      V1229   1.897       .  S
O1225      C1234   1.264       .  A
O1225      V1230   1.899       .  S
O1226      C1233   1.264       .  A
O1226      V1742   1.899       .  S
O1227      C1232   1.265       .  A
O1227      V1230   1.907       .  S
O1228      C1743   1.266       .  A
O1228      V1742   1.907       .  S
V1229      O1734   1.899       .  S
V1229      O1735   1.897       .  S
V1229      V1230   2.089       .  T
V1230      O1738   1.899       .  S
V1230      O1740   1.906       .  S
C1231      O1740   1.266       .  A
C1231      C1494   1.478       .  S
C1232      O1734   1.264       .  A
C1232      C1456   1.470       .  S
C1233      C1248   1.463       .  S
C1234      C1247   1.463       .  S
O1235      C1245   1.263       .  A
O1235      V1243   1.898       .  S
O1236      C1246   1.263       .  A
O1236      V1243   1.897       .  S
O1237      C1247   1.264       .  A
O1237      V1243   1.899       .  S
O1238      C1248   1.264       .  A
O1238      V1243   1.899       .  S
O1239      C1248   1.263       .  A
O1239      V1244   1.896       .  S
O1240      C1247   1.263       .  A
O1240      V1244   1.897       .  S
O1241      C1246   1.265       .  A
O1241      V1244   1.907       .  S
O1242      C1245   1.266       .  A
O1242      V1244   1.905       .  S
V1243      V1244   2.089       .  T
C1245      C1490   1.476       .  S
C1246      C1470   1.469       .  S
O1249      C1259   1.261       .  A
O1249      V1257   1.896       .  S
O1251      C1261   1.263       .  A
O1252      C1262   1.264       .  A
O1252      V1257   1.899       .  S
O1253      C1774   1.263       .  A
O1253      V1258   1.897       .  S
O1254      C1773   1.263       .  A
O1255      C1772   1.266       .  A
O1255      V1258   1.908       .  S
V1257      V1770   2.089   1_545  T
V1258      V1769   2.088       .  T
C1259      C1485   1.477       .  S
C1260      O1767   1.266   1_545  A
C1260      C1372   1.468   1_554  S
C1261      O1766   1.263   1_545  A
C1261      C1290   1.462       .  S
C1262      O1765   1.263   1_545  A
C1262      C1289   1.463       .  S
O1264      C1274   1.268   1_554  A
O1264      V1271   1.910       .  S
O1265      C1275   1.259       .  A
O1265      V1271   1.890       .  S
O1266      C1276   1.259       .  A
O1267      C1276   1.267       .  A
O1268      C1275   1.267       .  A
O1268      V1272   1.906       .  S
O1270      C1273   1.257       .  A
O1270      V1272   1.887       .  S
V1271      V1272   2.089       .  T
C1273      C1482   1.475       .  S
C1274      C1386   1.465       .  S
C1275      C1304   1.463       .  S
C1276      C1303   1.463       .  S
O1277      C1287   1.263       .  A
O1277      V1285   1.898       .  S
O1278      C1288   1.263   1_554  A
O1278      V1285   1.898       .  S
O1279      C1289   1.263       .  A
O1279      V1285   1.898       .  S
O1280      C1290   1.263       .  A
O1280      V1285   1.897       .  S
O1281      C1802   1.263       .  A
O1281      V1286   1.898       .  S
O1282      C1801   1.264       .  A
O1282      V1286   1.899       .  S
O1283      C1800   1.265   1_554  A
O1283      V1286   1.905       .  S
O1284      C1799   1.266       .  A
O1284      V1286   1.905       .  S
V1285      V1798   2.089   1_545  T
V1286      V1797   2.089       .  T
C1287      O1796   1.266   1_545  A
C1287      C1478   1.475       .  S
C1288      O1795   1.265   1_546  A
C1288      C1400   1.468       .  S
C1289      O1794   1.264   1_545  A
C1290      O1793   1.264   1_545  A
O1291      C1301   1.256       .  A
O1291      V1299   1.876       .  S
O1292      C1302   1.257   1_554  A
O1292      V1299   1.876       .  S
O1293      C1303   1.268       .  A
O1293      V1299   1.907       .  S
O1294      C1304   1.268       .  A
O1294      V1299   1.907       .  S
O1295      C1304   1.259       .  A
O1295      V1300   1.889       .  S
O1296      C1303   1.259       .  A
O1296      V1300   1.889       .  S
O1297      C1302   1.271   1_554  A
O1297      V1300   1.925       .  S
O1298      C1301   1.272       .  A
O1298      V1300   1.926       .  S
V1299      V1300   2.088       .  T
C1301      C1473   1.474       .  S
C1302      C1414   1.468       .  S
O1305      C1827   1.261       .  A
O1305      V1313   1.893       .  S
O1307      C1317   1.265       .  A
O1308      C1318   1.266       .  A
O1308      V1313   1.902       .  S
O1309      C1830   1.261   1_545  A
O1309      V1314   1.892       .  S
O1310      C1829   1.262   1_545  A
O1311      C1828   1.267   1_545  A
O1311      V1314   1.910       .  S
V1313      V1826   2.089       .  T
V1314      V1825   2.089   1_545  T
C1315      O1817   1.261       .  A
C1315      C1486   1.477       .  S
C1316      O1823   1.267       .  A
C1317      O1822   1.262       .  A
C1317      C1345   1.462       .  S
C1318      O1821   1.261       .  A
C1318      C1346   1.461       .  S
O1320      C1330   1.268       .  A
O1320      V1327   1.914       .  S
O1321      C1331   1.260       .  A
O1321      V1327   1.891   1_655  S
O1322      C1332   1.261       .  A
O1323      C1332   1.267       .  A
O1324      C1331   1.268       .  A
O1324      V1328   1.911   1_655  S
O1326      C1329   1.257   1_455  A
O1326      V1328   1.883       .  S
V1327      V1328   2.089       .  T
C1329      C1481   1.474       .  S
C1331      C1359   1.467       .  S
C1332      C1360   1.465       .  S
O1333      C1343   1.264   1_545  A
O1333      V1341   1.897       .  S
O1334      C1856   1.262       .  A
O1334      V1341   1.899       .  S
O1335      C1857   1.265   1_545  A
O1335      V1341   1.903       .  S
O1336      C1858   1.265   1_545  A
O1336      V1341   1.901       .  S
O1337      C1346   1.261       .  A
O1337      V1342   1.893       .  S
O1338      C1345   1.261       .  A
O1338      V1342   1.892       .  S
O1339      C1344   1.266       .  A
O1339      V1342   1.906       .  S
O1340      C1855   1.265       .  A
O1340      V1342   1.907       .  S
V1341      V1854   2.089   1_545  T
V1342      V1853   2.089       .  T
C1343      O1852   1.265       .  A
C1343      C1477   1.478       .  S
C1344      O1846   1.262       .  A
C1345      O1847   1.265       .  A
C1346      O1848   1.265       .  A
O1347      C1357   1.271       .  A
O1347      V1355   1.912       .  S
O1348      C1358   1.266       .  A
O1348      V1355   1.910       .  S
O1349      C1359   1.261       .  A
O1349      V1355   1.896       .  S
O1350      C1360   1.261       .  A
O1350      V1355   1.894       .  S
O1351      C1360   1.267       .  A
O1351      V1356   1.906       .  S
O1352      C1359   1.267       .  A
O1352      V1356   1.906       .  S
O1353      C1358   1.260       .  A
O1353      V1356   1.888       .  S
O1354      C1357   1.259       .  A
O1354      V1356   1.893       .  S
V1355      V1356   2.089       .  T
C1357      C1474   1.480       .  S
O1362      C1372   1.264       .  A
O1362      V1369   1.899       .  S
O1363      C1373   1.264       .  A
O1363      V1369   1.899       .  S
O1364      C1374   1.263       .  A
O1365      C1886   1.264       .  A
O1366      C1885   1.264       .  A
O1366      V1370   1.898       .  S
O1368      C1883   1.265       .  A
O1368      V1370   1.901       .  S
V1369      V1882   2.089   1_545  T
V1370      V1881   2.089       .  T
C1371      O1880   1.266   1_545  A
C1371      C1517   1.476       .  S
C1373      O1878   1.264   1_545  A
C1373      C1401   1.464       .  S
C1374      O1877   1.264   1_545  A
C1374      C1402   1.463       .  S
O1376      C1386   1.267       .  A
O1376      V1383   1.904       .  S
O1377      C1387   1.261       .  A
O1377      V1383   1.893       .  S
O1378      C1388   1.261       .  A
O1379      C1388   1.266       .  A
O1380      C1387   1.266       .  A
O1380      V1384   1.903       .  S
O1382      C1385   1.261       .  A
O1382      V1384   1.891       .  S
V1383      V1384   2.089       .  T
C1385      C1514   1.472       .  S
C1387      C1416   1.463       .  S
C1388      C1415   1.463       .  S
O1389      C1911   1.265       .  A
O1389      V1397   1.901       .  S
O1390      C1912   1.264       .  A
O1390      V1397   1.902       .  S
O1391      C1913   1.264       .  A
O1391      V1397   1.899       .  S
O1392      C1914   1.263       .  A
O1392      V1397   1.898       .  S
O1393      C1402   1.263       .  A
O1393      V1398   1.898       .  S
O1394      C1401   1.263       .  A
O1394      V1398   1.898       .  S
O1395      C1400   1.264       .  A
O1395      V1398   1.900       .  S
O1396      C1399   1.264       .  A
O1396      V1398   1.902       .  S
V1397      V1910   2.089       .  T
V1398      V1909   2.089   1_545  T
C1399      O1901   1.265   1_545  A
C1399      C1509   1.477       .  S
C1400      O1902   1.264   1_545  A
C1401      O1903   1.264   1_545  A
C1402      O1904   1.263   1_545  A
O1403      C1413   1.266       .  A
O1403      V1411   1.905       .  S
O1404      C1414   1.263       .  A
O1404      V1411   1.910       .  S
O1405      C1415   1.265       .  A
O1405      V1411   1.902       .  S
O1406      C1416   1.266       .  A
O1406      V1411   1.902       .  S
O1407      C1416   1.261       .  A
O1407      V1412   1.894       .  S
O1408      C1415   1.262       .  A
O1408      V1412   1.894       .  S
O1409      C1414   1.265       .  A
O1409      V1412   1.892       .  S
O1410      C1413   1.263       .  A
O1410      V1412   1.897       .  S
V1411      V1412   2.089       .  T
C1413      C1506   1.475       .  S
O1417      C1939   1.271   1_655  A
O1417      V1937   1.916   1_565  S
O1418      C1428   1.269   1_655  A
O1418      V1425   1.914       .  S
O1419      C1429   1.259   1_655  A
O1419      V1425   1.889       .  S
O1420      C1430   1.260   1_655  A
O1420      V1937   1.891       .  S
O1421      V1938   1.901   1_545  S
O1422      V1426   1.901       .  S
O1423      V1938   1.881       .  S
O1424      V1426   1.886       .  S
V1425      O1929   1.916       .  S
V1425      O1932   1.891       .  S
V1426      O1933   1.902       .  S
V1426      O1935   1.881       .  S
C1427      O1929   1.271   1_455  A
C1427      C1534   1.476       .  S
C1429      C1443   1.463       .  S
C1430      C1444   1.464       .  S
O1431      V1439   1.919       .  S
O1432      V1439   1.922       .  S
O1433      V1439   1.894       .  S
O1434      V1439   1.895       .  S
O1435      C1444   1.268   1_655  A
O1435      V1440   1.906       .  S
O1436      C1443   1.267   1_655  A
O1436      V1440   1.906       .  S
O1437      C1442   1.258   1_655  A
O1437      V1440   1.878       .  S
O1438      C1441   1.256   1_655  A
O1438      V1440   1.877       .  S
C1441      C1530   1.473       .  S
O1445      C1455   1.267       .  A
O1445      V1453   1.909       .  S
O1446      C1968   1.266       .  A
O1446      V1965   1.909       .  S
O1447      C1457   1.263       .  A
O1447      V1965   1.896       .  S
O1448      C1458   1.263       .  A
O1448      V1453   1.896       .  S
O1449      C1458   1.264       .  A
O1449      V1454   1.900       .  S
O1450      C1457   1.264       .  A
O1450      V1966   1.899       .  S
O1451      C1456   1.263       .  A
O1451      V1454   1.896       .  S
O1452      C1967   1.261       .  A
O1452      V1966   1.897       .  S
V1453      O1958   1.909       .  S
V1453      O1959   1.896       .  S
V1453      V1454   2.089       .  T
V1454      O1962   1.899       .  S
V1454      O1964   1.896       .  S
C1455      O1964   1.261       .  A
C1455      C1526   1.478       .  S
C1456      O1958   1.266       .  A
C1457      C1472   1.463       .  S
C1458      C1471   1.463       .  S
O1459      C1469   1.265       .  A
O1459      V1467   1.905       .  S
O1460      C1470   1.265       .  A
O1460      V1467   1.905       .  S
O1461      C1471   1.264       .  A
O1461      V1467   1.899       .  S
O1462      C1472   1.264       .  A
O1462      V1467   1.900       .  S
O1463      C1472   1.263       .  A
O1463      V1468   1.897       .  S
O1464      C1471   1.262       .  A
O1464      V1468   1.896       .  S
O1465      C1470   1.264       .  A
O1465      V1468   1.899       .  S
O1466      C1469   1.264       .  A
O1466      V1468   1.900       .  S
V1467      V1468   2.089       .  T
C1469      C1522   1.477       .  S
C1473      C1474   1.336       .  D
C1473      H1475   1.087       .  S
C1474      H1476   1.086       .  S
C1477      C1478   1.345   1_565  D
C1477      H1991   1.086       .  S
C1478      H1480   1.086       .  S
H1479      C1989   1.086       .  S
C1481      C1482   1.336       .  D
C1482      H1484   1.087       .  S
C1485      C1486   1.341   1_545  D
C1486      H2000   1.087       .  S
H1488      C1998   1.087       .  S
C1489      C1490   1.343       .  D
C1489      H1491   1.087       .  S
C1490      H1492   1.087       .  S
C1493      C1494   1.345       .  D
C1493      H2007   1.083       .  S
C1494      H1496   1.083       .  S
H1495      C2005   1.086       .  S
C1497      C1498   1.344       .  D
C1498      H1500   1.087   1_455  S
C1501      C1502   1.344       .  D
C1502      H1504   1.087   1_455  S
C1505      C1506   1.344       .  D
C1505      H1507   1.086       .  S
C1506      H1508   1.087       .  S
C1509      C1510   1.344   1_545  D
C1509      H1511   1.086       .  S
C1510      H2024   1.087       .  S
H1512      C2022   1.087       .  S
C1513      C1514   1.341       .  D
C1514      H1516   1.087       .  S
C1517      C1518   1.343   1_545  D
C1518      H2032   1.087       .  S
H1520      C2030   1.087       .  S
C1521      C1522   1.346       .  D
C1521      H1523   1.086       .  S
C1522      H1524   1.086       .  S
C1525      C1526   1.342       .  D
C1525      H2039   1.087       .  S
C1526      H1528   1.087       .  S
H1527      C2037   1.087       .  S
C1529      C1530   1.336       .  D
C1530      H1532   1.087   1_455  S
C1533      C1534   1.336   1_655  D
C1533      H2047   1.087       .  S
H1535      C2045   1.087       .  S
O1537      C1547   1.258   1_655  A
O1538      V1545   1.884       .  S
O1539      C1549   1.267   1_655  A
O1539      V1545   1.905       .  S
O1540      C1550   1.267   1_655  A
O1542      V1546   1.891       .  S
O1544      V1546   1.917       .  S
C1547      C2045   1.475   1_455  S
C1548      C1604   1.459       .  S
C1549      C1563   1.462       .  S
C1550      C1564   1.464       .  S
O1551      V1559   1.892       .  S
O1552      V1559   1.890       .  S
O1553      V1559   1.904       .  S
O1554      V1559   1.905       .  S
O1555      C1564   1.260   1_655  A
O1555      V1560   1.892       .  S
O1556      C1563   1.260   1_655  A
O1556      V1560   1.890       .  S
O1557      C1562   1.266       .  A
O1557      V1560   1.910       .  S
O1558      C1561   1.270   1_655  A
O1558      V1560   1.910       .  S
C1561      C2041   1.479       .  S
C1562      C1618   1.459       .  S
O1565      C1575   1.268       .  A
O1565      V1573   1.910       .  S
O1566      C1576   1.266       .  A
O1567      C1577   1.262       .  A
O1568      C1578   1.262       .  A
O1568      V1573   1.895       .  S
O1569      C1578   1.266       .  A
O1569      V1574   1.903       .  S
O1570      C1577   1.265       .  A
O1571      V1574   1.895   1_545  S
V1573      V1574   2.089       .  T
C1575      C2037   1.478       .  S
C1576      C1632   1.463       .  S
C1577      C1592   1.462       .  S
C1578      C1591   1.465       .  S
O1579      C1589   1.264       .  A
O1579      V1587   1.896       .  S
O1580      C1590   1.261       .  A
O1580      V1587   1.898       .  S
O1581      C1591   1.266       .  A
O1581      V1587   1.903       .  S
O1582      C1592   1.265       .  A
O1582      V1587   1.900       .  S
O1583      C1592   1.262       .  A
O1583      V1588   1.893       .  S
O1584      C1591   1.262       .  A
O1584      V1588   1.896       .  S
O1585      C1590   1.266       .  A
O1585      V1588   1.906       .  S
O1586      C1589   1.266       .  A
O1586      V1588   1.908       .  S
V1587      V1588   2.089       .  T
C1589      C2033   1.479       .  S
C1590      C1646   1.462       .  S
O1593      C1603   1.266       .  A
O1593      V1601   1.905       .  S
O1595      C1605   1.264       .  A
O1596      C1606   1.263       .  A
O1596      V1601   1.897       .  S
O1597      V1602   1.896       .  S
O1599      V1602   1.897       .  S
C1603      C2030   1.475       .  S
C1605      C1634   1.468       .  S
C1606      C1633   1.461       .  S
O1607      C1617   1.263       .  A
O1607      V1615   1.901       .  S
O1609      C1619   1.264       .  A
O1610      C1620   1.264       .  A
O1610      V1615   1.898       .  S
O1611      C1620   1.263       .  A
O1611      V1616   1.896       .  S
O1612      C1619   1.264       .  A
O1613      C1618   1.263       .  A
O1613      V1616   1.901       .  S
V1615      V1616   2.090       .  T
C1617      C2025   1.475       .  S
C1619      C1648   1.465       .  S
C1620      C1647   1.461       .  S
O1621      C1631   1.266       .  A
O1621      V1629   1.904       .  S
O1622      C1632   1.264       .  A
O1622      V1629   1.904       .  S
O1623      C1633   1.263       .  A
O1623      V1629   1.897       .  S
O1624      C1634   1.265       .  A
O1624      V1629   1.901       .  S
O1625      V1630   1.901       .  S
O1626      V1630   1.896       .  S
O1627      V1630   1.902       .  S
O1628      V1630   1.900       .  S
C1631      C2022   1.476       .  S
O1635      C1645   1.265       .  A
O1635      V1643   1.905       .  S
O1636      C1646   1.265       .  A
O1636      V1643   1.903       .  S
O1637      C1647   1.263       .  A
O1637      V1643   1.895       .  S
O1638      C1648   1.263       .  A
O1638      V1643   1.898       .  S
O1639      C1648   1.265       .  A
O1639      V1644   1.901       .  S
O1640      C1647   1.264       .  A
O1640      V1644   1.898       .  S
O1641      C1646   1.262       .  A
O1641      V1644   1.901       .  S
O1642      C1645   1.265       .  A
O1642      V1644   1.898       .  S
V1643      V1644   2.089       .  T
C1645      C2017   1.477       .  S
O1650      V1657   1.905       .  S
O1651      V1657   1.900       .  S
O1653      C1662   1.257       .  A
O1654      C1661   1.259       .  A
O1654      V1658   1.892       .  S
O1656      V1658   1.925       .  S
C1659      C2013   1.482       .  S
C1660      C1828   1.460       .  S
O1663      V1671   1.886       .  S
O1664      V1671   1.884       .  S
O1665      V1671   1.912       .  S
O1666      V1671   1.906       .  S
O1667      C1676   1.264   1_655  A
O1667      V1672   1.896       .  S
O1668      C1675   1.265   1_655  A
O1668      V1672   1.902       .  S
O1669      C1674   1.262   1_655  A
O1669      V1672   1.900       .  S
O1670      C1673   1.265   1_655  A
O1670      V1672   1.898       .  S
C1673      C2009   1.478       .  S
C1674      C1842   1.459       .  S
O1678      C1688   1.263       .  A
O1678      V1685   1.904       .  S
O1679      C1689   1.263       .  A
O1679      V1685   1.897   1_565  S
O1680      C1690   1.264       .  A
O1681      C1690   1.263       .  A
O1682      C1689   1.263       .  A
O1682      V1686   1.896   1_565  S
O1684      C1687   1.264       .  A
O1684      V1686   1.903       .  S
V1685      V1686   2.089       .  T
C1687      C2005   1.479       .  S
C1688      C1856   1.463       .  S
C1689      C1703   1.461       .  S
C1690      C1704   1.465       .  S
O1691      C1701   1.263       .  A
O1691      V1699   1.900       .  S
O1692      C1702   1.262       .  A
O1692      V1699   1.898       .  S
O1693      C1703   1.264       .  A
O1693      V1699   1.897       .  S
O1694      C1704   1.264       .  A
O1694      V1699   1.900       .  S
O1695      C1704   1.263       .  A
O1695      V1700   1.898       .  S
O1696      C1703   1.263       .  A
O1696      V1700   1.896       .  S
O1697      C1702   1.264       .  A
O1697      V1700   1.902       .  S
O1698      C1701   1.266       .  A
O1698      V1700   1.902       .  S
V1699      V1700   2.090       .  T
C1701      C2001   1.476       .  S
C1702      C1870   1.458       .  S
O1705      C1715   1.262   1_655  A
O1705      V1713   1.894       .  S
O1707      C1717   1.266   1_655  A
O1708      C1718   1.266   1_655  A
O1708      V1713   1.902       .  S
O1709      V1714   1.904       .  S
O1711      V1714   1.879       .  S
C1715      C2014   1.477       .  S
C1716      C1940   1.469   1_565  S
C1717      C1732   1.463       .  S
C1718      C1731   1.463       .  S
O1719      C1729   1.263   1_655  A
O1719      V1727   1.896       .  S
O1720      C1730   1.265   1_655  A
O1720      V1727   1.892       .  S
O1721      C1731   1.262   1_655  A
O1721      V1727   1.894       .  S
O1722      C1732   1.262   1_655  A
O1722      V1727   1.894       .  S
O1723      V1728   1.892       .  S
O1724      V1728   1.892       .  S
O1725      V1728   1.924       .  S
O1726      V1728   1.922       .  S
C1729      C2010   1.475       .  S
C1730      C1954   1.468       .  S
O1733      C1743   1.262       .  A
O1733      V1741   1.899       .  S
O1735      C1745   1.263       .  A
O1736      C1746   1.263       .  A
O1736      V1741   1.897   1_565  S
O1737      C1746   1.264       .  A
O1737      V1742   1.899   1_565  S
O1738      C1745   1.264       .  A
O1739      C1744   1.265       .  A
O1739      V1742   1.907       .  S
V1741      V1742   2.089       .  T
C1743      C2006   1.477       .  S
C1744      C1968   1.470       .  S
C1745      C1760   1.463       .  S
C1746      C1759   1.463       .  S
O1747      C1757   1.263       .  A
O1747      V1755   1.898       .  S
O1748      C1758   1.263       .  A
O1748      V1755   1.897       .  S
O1749      C1759   1.264       .  A
O1749      V1755   1.900       .  S
O1750      C1760   1.264       .  A
O1750      V1755   1.899       .  S
O1751      C1760   1.263       .  A
O1751      V1756   1.896       .  S
O1752      C1759   1.263       .  A
O1752      V1756   1.897       .  S
O1753      C1758   1.265       .  A
O1753      V1756   1.907       .  S
O1754      C1757   1.266       .  A
O1754      V1756   1.905       .  S
V1755      V1756   2.089       .  T
C1757      C2002   1.476       .  S
C1758      C1982   1.469       .  S
O1761      C1771   1.261       .  A
O1761      V1769   1.896       .  S
O1763      C1773   1.263       .  A
O1764      C1774   1.264       .  A
O1764      V1769   1.899       .  S
O1765      V1770   1.896       .  S
O1767      V1770   1.908       .  S
C1771      C1997   1.477       .  S
C1772      C1884   1.468   1_554  S
C1773      C1802   1.462       .  S
C1774      C1801   1.463       .  S
O1776      C1786   1.268   1_554  A
O1776      V1783   1.911       .  S
O1777      C1787   1.259       .  A
O1777      V1783   1.890       .  S
O1778      C1788   1.259       .  A
O1779      C1788   1.267       .  A
O1780      C1787   1.267       .  A
O1780      V1784   1.906       .  S
O1782      C1785   1.257       .  A
O1782      V1784   1.886       .  S
V1783      V1784   2.088       .  T
C1785      C1994   1.476       .  S
C1786      C1898   1.465       .  S
C1787      C1816   1.463       .  S
C1788      C1815   1.463       .  S
O1789      C1799   1.263       .  A
O1789      V1797   1.898       .  S
O1790      C1800   1.263   1_554  A
O1790      V1797   1.898       .  S
O1791      C1801   1.263       .  A
O1791      V1797   1.898       .  S
O1792      C1802   1.263       .  A
O1792      V1797   1.897       .  S
O1793      V1798   1.898       .  S
O1794      V1798   1.899       .  S
O1795      V1798   1.904       .  S
O1796      V1798   1.905       .  S
C1799      C1990   1.475       .  S
C1800      C1912   1.468       .  S
O1803      C1813   1.256       .  A
O1803      V1811   1.877       .  S
O1804      C1814   1.257   1_554  A
O1804      V1811   1.877       .  S
O1805      C1815   1.268       .  A
O1805      V1811   1.907       .  S
O1806      C1816   1.268       .  A
O1806      V1811   1.907       .  S
O1807      C1816   1.259       .  A
O1807      V1812   1.889       .  S
O1808      C1815   1.259       .  A
O1808      V1812   1.889       .  S
O1809      C1814   1.270   1_554  A
O1809      V1812   1.924       .  S
O1810      C1813   1.272       .  A
O1810      V1812   1.926       .  S
V1811      V1812   2.088       .  T
C1813      C1985   1.475       .  S
C1814      C1926   1.469       .  S
O1817      V1825   1.893       .  S
O1819      C1829   1.265       .  A
O1820      C1830   1.266       .  A
O1820      V1825   1.902       .  S
O1821      V1826   1.891       .  S
O1823      V1826   1.910       .  S
C1827      C1998   1.477       .  S
C1829      C1857   1.462       .  S
C1830      C1858   1.461       .  S
O1832      C1842   1.268       .  A
O1832      V1839   1.915       .  S
O1833      C1843   1.260       .  A
O1833      V1839   1.891   1_655  S
O1834      C1844   1.261       .  A
O1835      C1844   1.267       .  A
O1836      C1843   1.268       .  A
O1836      V1840   1.911   1_655  S
O1838      C1841   1.257   1_455  A
O1838      V1840   1.882       .  S
V1839      V1840   2.089       .  T
C1841      C1993   1.474       .  S
C1843      C1871   1.467       .  S
C1844      C1872   1.465       .  S
O1845      C1855   1.264       .  A
O1845      V1853   1.897       .  S
O1846      V1853   1.899       .  S
O1847      V1853   1.902       .  S
O1848      V1853   1.901       .  S
O1849      C1858   1.261       .  A
O1849      V1854   1.893       .  S
O1850      C1857   1.261       .  A
O1850      V1854   1.892       .  S
O1851      C1856   1.266   1_565  A
O1851      V1854   1.907       .  S
O1852      V1854   1.907       .  S
C1855      C1989   1.478       .  S
O1859      C1869   1.271       .  A
O1859      V1867   1.912       .  S
O1860      C1870   1.266       .  A
O1860      V1867   1.910       .  S
O1861      C1871   1.261       .  A
O1861      V1867   1.896       .  S
O1862      C1872   1.261       .  A
O1862      V1867   1.894       .  S
O1863      C1872   1.267       .  A
O1863      V1868   1.906       .  S
O1864      C1871   1.267       .  A
O1864      V1868   1.906       .  S
O1865      C1870   1.260       .  A
O1865      V1868   1.889       .  S
O1866      C1869   1.259       .  A
O1866      V1868   1.894       .  S
V1867      V1868   2.089       .  T
C1869      C1986   1.480       .  S
O1874      C1884   1.264       .  A
O1874      V1881   1.899       .  S
O1875      C1885   1.264       .  A
O1875      V1881   1.898       .  S
O1876      C1886   1.263       .  A
O1878      V1882   1.898       .  S
O1880      V1882   1.901       .  S
C1883      C2029   1.476       .  S
C1885      C1913   1.464       .  S
C1886      C1914   1.463       .  S
O1888      C1898   1.267       .  A
O1888      V1895   1.904       .  S
O1889      C1899   1.261       .  A
O1889      V1895   1.894       .  S
O1890      C1900   1.261       .  A
O1891      C1900   1.266       .  A
O1892      C1899   1.266       .  A
O1892      V1896   1.903       .  S
O1894      C1897   1.261       .  A
O1894      V1896   1.891       .  S
V1895      V1896   2.089       .  T
C1897      C2026   1.472       .  S
C1899      C1928   1.464       .  S
C1900      C1927   1.463       .  S
O1901      V1909   1.901       .  S
O1902      V1909   1.902       .  S
O1903      V1909   1.899       .  S
O1904      V1909   1.898       .  S
O1905      C1914   1.263       .  A
O1905      V1910   1.898       .  S
O1906      C1913   1.263       .  A
O1906      V1910   1.898       .  S
O1907      C1912   1.264       .  A
O1907      V1910   1.900       .  S
O1908      C1911   1.264       .  A
O1908      V1910   1.902       .  S
C1911      C2021   1.477       .  S
O1915      C1925   1.266       .  A
O1915      V1923   1.905       .  S
O1916      C1926   1.263       .  A
O1916      V1923   1.910       .  S
O1917      C1927   1.265       .  A
O1917      V1923   1.902       .  S
O1918      C1928   1.266       .  A
O1918      V1923   1.902       .  S
O1919      C1928   1.261       .  A
O1919      V1924   1.894       .  S
O1920      C1927   1.262       .  A
O1920      V1924   1.894       .  S
O1921      C1926   1.265       .  A
O1921      V1924   1.893       .  S
O1922      C1925   1.263       .  A
O1922      V1924   1.897       .  S
V1923      V1924   2.089       .  T
C1925      C2018   1.475       .  S
O1930      C1940   1.269   1_655  A
O1930      V1937   1.914       .  S
O1931      C1941   1.259   1_655  A
O1931      V1937   1.889   1_565  S
O1932      C1942   1.260   1_655  A
O1934      V1938   1.901       .  S
O1936      V1938   1.886       .  S
C1939      C2046   1.476       .  S
C1941      C1955   1.463       .  S
C1942      C1956   1.464       .  S
O1943      V1951   1.919       .  S
O1944      V1951   1.922       .  S
O1945      V1951   1.894       .  S
O1946      V1951   1.895       .  S
O1947      C1956   1.268   1_655  A
O1947      V1952   1.906       .  S
O1948      C1955   1.267   1_655  A
O1948      V1952   1.906       .  S
O1949      C1954   1.258   1_655  A
O1949      V1952   1.878       .  S
O1950      C1953   1.256   1_655  A
O1950      V1952   1.877       .  S
C1953      C2042   1.473       .  S
O1957      C1967   1.268       .  A
O1957      V1965   1.909       .  S
O1959      C1969   1.263       .  A
O1960      C1970   1.263       .  A
O1960      V1965   1.896   1_565  S
O1961      C1970   1.264       .  A
O1961      V1966   1.900   1_565  S
O1962      C1969   1.264       .  A
O1963      C1968   1.263       .  A
O1963      V1966   1.896       .  S
V1965      V1966   2.089       .  T
C1967      C2038   1.478       .  S
C1969      C1984   1.463       .  S
C1970      C1983   1.463       .  S
O1971      C1981   1.265       .  A
O1971      V1979   1.905       .  S
O1972      C1982   1.265       .  A
O1972      V1979   1.905       .  S
O1973      C1983   1.264       .  A
O1973      V1979   1.899       .  S
O1974      C1984   1.264       .  A
O1974      V1979   1.900       .  S
O1975      C1984   1.263       .  A
O1975      V1980   1.897       .  S
O1976      C1983   1.262       .  A
O1976      V1980   1.896       .  S
O1977      C1982   1.264       .  A
O1977      V1980   1.899       .  S
O1978      C1981   1.264       .  A
O1978      V1980   1.899       .  S
V1979      V1980   2.089       .  T
C1981      C2034   1.476       .  S
C1985      C1986   1.337       .  D
C1985      H1987   1.087       .  S
C1986      H1988   1.086       .  S
C1989      C1990   1.345       .  D
C1990      H1992   1.086       .  S
C1993      C1994   1.335       .  D
C1994      H1996   1.087       .  S
C1997      C1998   1.341       .  D
C2001      C2002   1.343       .  D
C2001      H2003   1.087       .  S
C2002      H2004   1.087       .  S
C2005      C2006   1.344       .  D
C2006      H2008   1.086       .  S
C2009      C2010   1.344       .  D
C2010      H2012   1.087   1_455  S
C2013      C2014   1.344       .  D
C2014      H2016   1.087   1_455  S
C2017      C2018   1.344       .  D
C2017      H2019   1.085       .  S
C2018      H2020   1.087       .  S
C2021      C2022   1.344       .  D
C2021      H2023   1.085       .  S
C2025      C2026   1.341       .  D
C2026      H2028   1.087       .  S
C2029      C2030   1.342       .  D
C2033      C2034   1.346       .  D
C2033      H2035   1.086       .  S
C2034      H2036   1.086       .  S
C2037      C2038   1.342   1_565  D
C2038      H2040   1.087       .  S
C2041      C2042   1.336       .  D
C2042      H2044   1.087   1_455  S
C2045      C2046   1.336   1_655  D
