geometry optimzed in LAMMPS
_audit_creation_date              2020-11-30 
_audit_creation_method            'lammps2cif' 
_symmetry_space_group_name_H-M    'P1' 
_symmetry_Int_Tables_number       1 
_symmetry_cell_setting            triclinic 
loop_ 
_symmetry_equiv_pos_as_xyz 
  x,y,z 
_cell_length_a                    30.33024217 
_cell_length_b                    27.66117263531771 
_cell_length_c                    30.363579310504914 
_cell_angle_alpha                 90.31964167529478 
_cell_angle_beta                  90.00775569996969 
_cell_angle_gamma                 108.68222059259304 
loop_ 
_atom_site_label 
_atom_site_type_symbol 
_atom_site_fract_x 
_atom_site_fract_y 
_atom_site_fract_z 
_atom_site_charge 
C1          C  0.67101287  0.32195961  0.46132292     0.45800
H2          H  0.66909326  0.31889143  0.42482216    -0.03200
C3          C  0.67522033  0.33018130  0.54664201     0.45800
H4          H  0.67619875  0.33451108  0.58302428    -0.03200
C5          C  0.66691133  0.37277712  0.47845435    -0.16900
C6          C  0.63215554  0.28005410  0.48482378    -0.16700
C7          C  0.71724724  0.31921366  0.48074675    -0.17100
C8          C  0.66945520  0.37719069  0.52351476    -0.17000
C9          C  0.63469634  0.28423667  0.52999496    -0.16600
C10         C  0.71966409  0.32341258  0.52625708    -0.16900
C11         C  0.28656379  0.67799296  0.54303129     0.45800
H12         H  0.28765294  0.67677225  0.57942056    -0.03200
C13         C  0.28268747  0.67638749  0.45767512     0.45800
H14         H  0.28159824  0.67576307  0.42109340    -0.03200
C15         C  0.32822695  0.66662588  0.52147053    -0.16900
C16         C  0.24304888  0.63771698  0.52433003    -0.16700
C17         C  0.28673182  0.72973669  0.52347916    -0.17100
C18         C  0.32614199  0.66651881  0.47611397    -0.17000
C19         C  0.24099532  0.63614784  0.47912622    -0.16600
C20         C  0.28430190  0.72820103  0.47785583    -0.16900
N21         N  0.61591241  0.63251498  0.27418090    -0.03100
C22         C  0.64030262  0.65831212  0.23920606    -0.00600
C23         C  0.61592015  0.68644439  0.21875332    -0.23400
C24         C  0.57535357  0.67817461  0.24158234    -0.23600
C25         C  0.57613707  0.64510735  0.27513736    -0.00700
H26         H  0.62739609  0.71182470  0.19103887     0.13100
H27         H  0.54926711  0.69653156  0.23592399     0.13200
N28         N  0.67195714  0.70457925  0.66190913    -0.03100
C29         C  0.70882882  0.74447568  0.67612505    -0.00600
C30         C  0.69978162  0.79003099  0.67134694    -0.23400
C31         C  0.65585393  0.77830576  0.65460108    -0.23600
C32         C  0.63908615  0.72586731  0.64939844    -0.00700
H33         H  0.72133138  0.82743030  0.68234820     0.13100
H34         H  0.63704295  0.80501889  0.64898814     0.13200
N35         N  0.35076365  0.02805012  0.73123987    -0.03100
C36         C  0.33384237  0.02873338  0.77297420    -0.00600
C37         C  0.36333965  0.06771998  0.79773059    -0.23400
C38         C  0.39922007  0.09300242  0.77089926    -0.23600
C39         C  0.39099001  0.06883000  0.73032056    -0.00700
H40         H  0.35784410  0.07843739  0.83112363     0.13100
H41         H  0.42729990  0.12734573  0.77932932     0.13200
N42         N  0.33231880  0.03850846  0.29476992    -0.03100
C43         C  0.30485361  0.05181739  0.26500409    -0.00600
C44         C  0.32838744  0.09887593  0.24709906    -0.23400
C45         C  0.37157342  0.11516728  0.26641556    -0.23600
C46         C  0.37313634  0.07767047  0.29559969    -0.00700
H47         H  0.31517336  0.11953739  0.22305479     0.13100
H48         H  0.39797960  0.15182927  0.26170883     0.13200
N49         N  0.98775437  0.33087204  0.28905582    -0.03100
C50         C  0.99089752  0.30082059  0.25441119    -0.00600
C51         C  0.03188432  0.32259827  0.23171436    -0.23400
C52         C  0.05474459  0.36771384  0.25265830    -0.23600
C53         C  0.02700357  0.37204692  0.28752049    -0.00700
H54         H  0.04399640  0.30695289  0.20316138     0.13100
H55         H  0.08873292  0.39374278  0.24433835     0.13200
N56         N  0.98798042  0.35400800  0.72853887    -0.03100
C57         C  0.98688695  0.33210270  0.76884127    -0.00600
C58         C  0.02111335  0.36265386  0.79596957    -0.23400
C59         C  0.04488374  0.40444052  0.77183941    -0.23600
C60         C  0.02459846  0.39838281  0.73050365    -0.00700
H61         H  0.03055714  0.35317922  0.82841053     0.13100
H62         H  0.07652435  0.43379980  0.78193078     0.13200
O63         O  0.01333939  0.90054691  0.95356016    -0.81500
C64         C  0.92570096  0.01369476  0.05827259     0.97900
O65         O  0.96248169  0.03177235  0.03595808    -0.70600
O66         O  0.02158192  0.98540364  0.05835812    -0.74200
Al67       Al  0.99959326  0.99916896  0.00324694     1.49000
C68         C  0.03464960  0.94790342  0.06821323     0.93100
O69         O  0.93336700  0.85550361  0.05166266    -0.80400
O70         O  0.89099767  0.89978481  0.94105374    -0.74000
Al71       Al  0.97223012  0.88161372  0.00243441     1.90100
O72         O  0.87162104  0.87182669  0.02740098    -0.73000
O73         O  0.90741616  0.99657264  0.96156125    -0.72900
O74         O  0.89759946  0.96985897  0.04991230    -0.78500
O75         O  0.98211355  0.01918962  0.94798743    -0.76700
O76         O  0.95632240  0.93834092  0.00045410    -1.12900
O77         O  0.04663026  0.98078251  0.97174418    -0.72100
C78         C  0.04576961  0.94210869  0.94915912     0.98600
C79         C  0.89027479  0.84823425  0.05305440     0.95000
Al80       Al  0.89676865  0.93462078  0.99540762     1.55600
O81         O  0.02237496  0.90770956  0.04475126    -0.76700
C82         C  0.94242590  0.02216119  0.93948446     0.99200
C83         C  0.90044688  0.85927169  0.93372164     0.94100
O84         O  0.92542640  0.84395467  0.96019465    -0.82000
C85         C  0.00243937  0.16232706  0.77736978    -0.17500
C86         C  0.99804408  0.11920570  0.80315633    -0.19700
C87         C  0.96800300  0.10819527  0.83957041     0.21000
C88         C  0.94039511  0.13953842  0.84877375    -0.02600
C89         C  0.94543789  0.18357605  0.82321054    -0.05700
C90         C  0.97724979  0.19549677  0.78782519     0.21300
C91         C  0.92101655  0.21743164  0.83496093     0.19400
C92         C  0.88939184  0.20515706  0.87010790    -0.17100
C93         C  0.88351974  0.16090135  0.89471577    -0.19400
C94         C  0.90978013  0.12861600  0.88511003     0.20900
C95         C  0.90796132  0.08739788  0.91268450    -0.32400
C96         C  0.93783793  0.05840667  0.90553292     0.01600
C97         C  0.96688556  0.06812656  0.86827721    -0.23700
C98         C  0.98581007  0.24212453  0.76569889    -0.28300
C99         C  0.96436211  0.27768632  0.77964883     0.07300
C100        C  0.93111895  0.26456797  0.81346907    -0.27000
H101        H  0.02693906  0.17081485  0.75028411     0.12000
H102        H  0.01917742  0.09529419  0.79538256     0.13100
H103        H  0.87015708  0.23055494  0.87937893     0.12200
H104        H  0.85977211  0.15301549  0.92239638     0.11500
H105        H  0.88575031  0.08018118  0.94152155     0.16800
H106        H  0.98969234  0.04552189  0.86250494     0.12700
H107        H  0.01252219  0.25294017  0.74054872     0.15600
H108        H  0.91556739  0.29255052  0.82502098     0.15400
C109        C  0.89470732  0.20614699  0.13517990    -0.17500
C110        C  0.88702127  0.16517644  0.10567573    -0.19700
C111        C  0.90150615  0.12323482  0.11611671     0.21000
C112        C  0.92151539  0.12120322  0.15780973    -0.02600
C113        C  0.92917183  0.16257144  0.18767774    -0.05700
C114        C  0.91695762  0.20588306  0.17569119     0.21300
C115        C  0.95243575  0.16233866  0.22793263     0.19400
C116        C  0.96544155  0.11956460  0.23901801    -0.17100
C117        C  0.95777245  0.07857268  0.20951974    -0.19400
C118        C  0.93698285  0.07961565  0.16837904     0.20900
C119        C  0.93423714  0.04163476  0.13654959    -0.32400
C120        C  0.91677366  0.04512991  0.09427698     0.01600
C121        C  0.89924426  0.08507943  0.08459875    -0.23700
C122        C  0.93098459  0.24982577  0.20247312    -0.28300
C123        C  0.95761541  0.25125602  0.24063084     0.07300
C124        C  0.96603231  0.20657808  0.25440329    -0.27000
H125        H  0.88497257  0.23899324  0.12551257     0.12000
H126        H  0.87138460  0.16722863  0.07393850     0.13100
H127        H  0.98328283  0.11870424  0.26977605     0.12200
H128        H  0.96974754  0.04692092  0.21820859     0.11500
H129        H  0.94857858  0.01125624  0.14357272     0.16800
H130        H  0.88655258  0.08808522  0.05165846     0.12700
H131        H  0.92567042  0.28467566  0.19117801     0.15600
H132        H  0.98774901  0.20811428  0.28309806     0.15400
C133        C  0.11376701  0.04573498  0.19764422    -0.17500
C134        C  0.15141996  0.05940832  0.22685568    -0.19700
C135        C  0.18250801  0.03123854  0.22820858     0.21000
C136        C  0.17441043  0.98739770  0.20143337    -0.02600
C137        C  0.13635773  0.97363701  0.17178620    -0.05700
C138        C  0.10665725  0.00373788  0.16923490     0.21300
C139        C  0.12953619  0.93148997  0.14312311     0.19400
C140        C  0.15968152  0.90220084  0.14583127    -0.17100
C141        C  0.19755311  0.91599421  0.17506636    -0.19400
C142        C  0.20593522  0.95924566  0.20228405     0.20900
C143        C  0.24684157  0.97698824  0.22789865    -0.32400
C144        C  0.25656416  0.02282691  0.25190168     0.01600
C145        C  0.22327059  0.04830950  0.25346649    -0.23700
C146        C  0.07183054  0.99298683  0.13688619    -0.28300
C147        C  0.06636437  0.95285277  0.10649223     0.07300
C148        C  0.09424859  0.92103576  0.11086571    -0.27000
H149        H  0.09107593  0.06902248  0.19626947     0.12000
H150        H  0.15712693  0.09307485  0.24733973     0.13100
H151        H  0.15486777  0.86954077  0.12430070     0.12200
H152        H  0.22116796  0.89375695  0.17534169     0.11500
H153        H  0.27286651  0.95781622  0.22605011     0.16800
H154        H  0.23104379  0.08394574  0.27164617     0.12700
H155        H  0.05011803  0.01729647  0.13426530     0.15600
H156        H  0.09022705  0.88994259  0.08771083     0.15400
C157        C  0.16524114  0.00124673  0.78017860    -0.17500
C158        C  0.12508312  0.99135239  0.80611942    -0.19700
C159        C  0.12388642  0.97166554  0.84881409     0.21000
C160        C  0.16325170  0.96070534  0.86509751    -0.02600
C161        C  0.20377013  0.97076145  0.83894862    -0.05700
C162        C  0.20502914  0.99172917  0.79643521     0.21300
C163        C  0.24369931  0.96194663  0.85617529     0.19400
C164        C  0.24244525  0.94176525  0.89863352    -0.17100
C165        C  0.20229772  0.93146573  0.92435317    -0.19400
C166        C  0.16276631  0.94136674  0.90814015     0.20900
C167        C  0.12329044  0.93365513  0.93469400    -0.32400
C168        C  0.08451691  0.94543748  0.91900265     0.01600
C169        C  0.08465943  0.96404986  0.87601456    -0.23700
C170        C  0.24681516  0.00546965  0.77212927    -0.28300
C171        C  0.28732008  0.99937719  0.79036430     0.07300
C172        C  0.28501836  0.97616279  0.83173629    -0.27000
H173        H  0.16551169  0.01741695  0.74772161     0.12000
H174        H  0.09520211  0.99992894  0.79304564     0.13100
H175        H  0.27287768  0.93489519  0.91231553     0.12200
H176        H  0.20247940  0.91665655  0.95729832     0.11500
H177        H  0.12311926  0.91985446  0.96809178     0.16800
H178        H  0.05471776  0.97357229  0.86424332     0.12700
H179        H  0.24883701  0.02457163  0.74075380     0.15600
H180        H  0.31645581  0.97230879  0.84610434     0.15400
C181        C  0.78167492  0.71850957  0.85832593    -0.17500
C182        C  0.75490015  0.70045554  0.82045322    -0.19700
C183        C  0.76717703  0.72571088  0.78008230     0.21000
C184        C  0.80824492  0.76806038  0.77742748    -0.02600
C185        C  0.83494116  0.78665139  0.81572210    -0.05700
C186        C  0.82103908  0.76235893  0.85658828     0.21300
C187        C  0.87374537  0.83152181  0.81360432     0.19400
C188        C  0.88718313  0.85559802  0.77296918    -0.17100
C189        C  0.86098689  0.83698404  0.73504663    -0.19400
C190        C  0.82076147  0.79421187  0.73722773     0.20900
C191        C  0.79066861  0.78011729  0.70100574    -0.32400
C192        C  0.74736976  0.74167937  0.70488099     0.01600
C193        C  0.73712071  0.71236148  0.74347042    -0.23700
C194        C  0.84512247  0.78410356  0.89523024    -0.28300
C195        C  0.88193570  0.83035729  0.89332957     0.07300
C196        C  0.89678369  0.85317872  0.85247946    -0.27000
H197        H  0.77056680  0.69927789  0.88933567     0.12000
H198        H  0.72360055  0.66783741  0.82311580     0.13100
H199        H  0.91705166  0.88986563  0.77079154     0.12200
H200        H  0.87105217  0.85740278  0.70438728     0.11500
H201        H  0.79845918  0.80284010  0.67127891     0.16800
H202        H  0.70350204  0.68315163  0.74675489     0.12700
H203        H  0.83339781  0.76702203  0.92696919     0.15600
H204        H  0.92504635  0.88907407  0.85130028     0.15400
C205        C  0.79852310  0.77045747  0.23197543    -0.17500
C206        C  0.83294084  0.80054451  0.20385752    -0.19700
C207        C  0.83244671  0.78870049  0.15880212     0.21000
C208        C  0.79824767  0.74459093  0.14235256    -0.02600
C209        C  0.76412334  0.71359544  0.17095568    -0.05700
C210        C  0.76335191  0.72757374  0.21567312     0.21300
C211        C  0.72870351  0.67091398  0.15405861     0.19400
C212        C  0.72888120  0.65826218  0.10923491    -0.17100
C213        C  0.76237192  0.68917641  0.08085643    -0.19400
C214        C  0.79647558  0.73305377  0.09687632     0.20900
C215        C  0.82756608  0.76670944  0.06801099    -0.32400
C216        C  0.86091214  0.81111159  0.08413682     0.01600
C217        C  0.86415013  0.82130146  0.12958269    -0.23700
C218        C  0.72507497  0.70152178  0.24206693    -0.28300
C219        C  0.68751921  0.66215955  0.22411541     0.07300
C220        C  0.69126911  0.64471337  0.18114736    -0.27000
H221        H  0.79852512  0.78173742  0.26620710     0.12000
H222        H  0.85896201  0.83415740  0.21706613     0.13100
H223        H  0.70191516  0.62564917  0.09573454     0.12200
H224        H  0.76075522  0.67957917  0.04611445     0.11500
H225        H  0.82535950  0.75898559  0.03287293     0.16800
H226        H  0.88984813  0.85581558  0.14180524     0.12700
H227        H  0.72167068  0.71633357  0.27457641     0.15600
H228        H  0.66180601  0.61537171  0.16686536     0.15400
C229        C  0.23980192  0.91674233  0.40361362    -0.17500
C230        C  0.23315038  0.87327369  0.42962375    -0.19700
C231        C  0.26291077  0.84369644  0.42556811     0.21000
C232        C  0.29963073  0.85798555  0.39471967    -0.02600
C233        C  0.30659536  0.90208816  0.36875922    -0.05700
C234        C  0.27652979  0.93166737  0.37323361     0.21300
C235        C  0.34405893  0.91696073  0.33879384     0.19400
C236        C  0.37348297  0.88709629  0.33423368    -0.17100
C237        C  0.36634680  0.84322138  0.35962998    -0.19400
C238        C  0.32981707  0.82862238  0.39019644     0.20900
C239        C  0.32349025  0.78571208  0.41684836    -0.32400
C240        C  0.28784746  0.77203855  0.44845641     0.01600
C241        C  0.25708907  0.80057726  0.45217008    -0.23700
C242        C  0.28424560  0.97599491  0.34776483    -0.28300
C243        C  0.32226087  0.99154258  0.31882094     0.07300
C244        C  0.35182701  0.96180008  0.31437621    -0.27000
H245        H  0.21644456  0.93898894  0.40756976     0.12000
H246        H  0.20482221  0.86293265  0.45311663     0.13100
H247        H  0.40226147  0.89789380  0.31123118     0.12200
H248        H  0.38975844  0.82101342  0.35573373     0.11500
H249        H  0.34721697  0.76370564  0.41396320     0.16800
H250        H  0.22935930  0.78971454  0.47629944     0.12700
H251        H  0.26168439  0.99924079  0.35125023     0.15600
H252        H  0.38097034  0.97391128  0.29182669     0.15400
C253        C  0.34366622  0.91858284  0.55170772    -0.17500
C254        C  0.34936778  0.96039337  0.58005064    -0.19700
C255        C  0.33589894  0.95284660  0.62442563     0.21000
C256        C  0.31526539  0.90265631  0.63985954    -0.02600
C257        C  0.30740271  0.86060090  0.61068777    -0.05700
C258        C  0.32274883  0.86846626  0.56673628     0.21300
C259        C  0.28500331  0.81065666  0.62578071     0.19400
C260        C  0.27187304  0.80298021  0.67019343    -0.17100
C261        C  0.28161984  0.84434270  0.69949754    -0.19400
C262        C  0.30325997  0.89433020  0.68462270     0.20900
C263        C  0.31433693  0.93584777  0.71403918    -0.32400
C264        C  0.33506112  0.98645016  0.69933904     0.01600
C265        C  0.34380166  0.99440831  0.65382590    -0.23700
C266        C  0.31757695  0.82614612  0.53883381    -0.28300
C267        C  0.29300711  0.77595925  0.55267598     0.07300
C268        C  0.27641441  0.76919553  0.59640489    -0.27000
H269        H  0.35534607  0.92547199  0.51790711     0.12000
H270        H  0.36546205  0.99860724  0.56753508     0.13100
H271        H  0.25487347  0.76483903  0.68248549     0.12200
H272        H  0.27206784  0.83723453  0.73381006     0.11500
H273        H  0.30834860  0.92813339  0.74875280     0.16800
H274        H  0.35768992  0.03270277  0.64116189     0.12700
H275        H  0.33376090  0.83287095  0.50681985     0.15600
H276        H  0.25689522  0.73153078  0.60807947     0.15400
C277        C  0.46835487  0.61207697  0.53354668    -0.17500
C278        C  0.51352346  0.62178891  0.55022787    -0.19700
C279        C  0.52853162  0.65352795  0.58722389     0.21000
C280        C  0.49703154  0.67428676  0.60830655    -0.02600
C281        C  0.45240080  0.66654100  0.59021610    -0.05700
C282        C  0.43798225  0.63535415  0.55265847     0.21300
C283        C  0.42313808  0.69207933  0.60848975     0.19400
C284        C  0.43695510  0.72155649  0.64682574    -0.17100
C285        C  0.48028718  0.72744769  0.66586508    -0.19400
C286        C  0.51099151  0.70524168  0.64606217     0.20900
C287        C  0.55641306  0.71626075  0.66178021    -0.32400
C288        C  0.58934173  0.69981283  0.63882123     0.01600
C289        C  0.57502414  0.66738473  0.60204305    -0.23700
C290        C  0.39453720  0.63032987  0.53353417    -0.28300
C291        C  0.36808453  0.66111484  0.54800895     0.07300
C292        C  0.38189657  0.69022588  0.58672569    -0.27000
H293        H  0.45792838  0.58822295  0.50447490     0.12000
H294        H  0.53697208  0.60520443  0.53372985     0.13100
H295        H  0.41467919  0.74098001  0.66153134     0.12200
H296        H  0.49063062  0.75130196  0.69494593     0.11500
H297        H  0.56735653  0.74128447  0.69014722     0.16800
H298        H  0.60037477  0.65534682  0.58370413     0.12700
H299        H  0.38297969  0.60503725  0.50553687     0.15600
H300        H  0.36213545  0.71391819  0.59881018     0.15400
C301        C  0.38030287  0.57950452  0.35537638    -0.17500
C302        C  0.41615412  0.57394149  0.32889429    -0.19700
C303        C  0.46209170  0.60608863  0.33487766     0.21000
C304        C  0.47217091  0.64367327  0.36840618    -0.02600
C305        C  0.43587844  0.64997005  0.39449467    -0.05700
C306        C  0.38969760  0.61773522  0.38789505     0.21300
C307        C  0.44568550  0.68915877  0.42655818     0.19400
C308        C  0.49170101  0.72078560  0.43305689    -0.17100
C309        C  0.52772255  0.71428808  0.40745160    -0.19400
C310        C  0.51825124  0.67624543  0.37477991     0.20900
C311        C  0.55358476  0.67199412  0.34681878    -0.32400
C312        C  0.54314950  0.63673560  0.31190660     0.01600
C313        C  0.49770106  0.60317963  0.30652397    -0.23700
C314        C  0.35381859  0.62426699  0.41400317    -0.28300
C315        C  0.36362429  0.66260817  0.44642036     0.07300
C316        C  0.40931904  0.69589661  0.45165169    -0.27000
H317        H  0.34508879  0.55435470  0.34999789     0.12000
H318        H  0.40785468  0.54488080  0.30336012     0.13100
H319        H  0.49979092  0.75076304  0.45778161     0.12200
H320        H  0.56288830  0.73965823  0.41264391     0.11500
H321        H  0.58851017  0.69880008  0.34992821     0.16800
H322        H  0.48966258  0.57697443  0.27874966     0.12700
H323        H  0.31842883  0.59893338  0.40984954     0.15600
H324        H  0.41661036  0.72598781  0.47627910     0.15400
C325        C  0.17241027  0.45649519  0.65183098    -0.17500
C326        C  0.20429201  0.49241269  0.62560015    -0.19700
C327        C  0.19084286  0.52962243  0.60321671     0.21000
C328        C  0.14453177  0.53014264  0.60658640    -0.02600
C329        C  0.11256381  0.49452380  0.63392183    -0.05700
C330        C  0.12677626  0.45772060  0.65664191     0.21300
C331        C  0.06692150  0.49662220  0.63949598     0.19400
C332        C  0.05321332  0.53301582  0.61594572    -0.17100
C333        C  0.08453809  0.56741417  0.58777652    -0.19400
C334        C  0.13044920  0.56674638  0.58328856     0.20900
C335        C  0.16268041  0.60209040  0.55626054    -0.32400
C336        C  0.20895868  0.60206647  0.55364066     0.01600
C337        C  0.22295352  0.56633362  0.57759938    -0.23700
C338        C  0.09575507  0.42396632  0.68516229    -0.28300
C339        C  0.05116030  0.42737987  0.69283466     0.07300
C340        C  0.03658886  0.46347749  0.66961773    -0.27000
H341        H  0.18374628  0.42839830  0.66913806     0.12000
H342        H  0.23957732  0.49125193  0.62300302     0.13100
H343        H  0.01833276  0.53511314  0.61953722     0.12200
H344        H  0.07307766  0.59515512  0.57008468     0.11500
H345        H  0.15209245  0.62981368  0.53759335     0.16800
H346        H  0.25858936  0.56618435  0.57500882     0.12700
H347        H  0.10714891  0.39649766  0.70342948     0.15600
H348        H  0.00243927  0.46662084  0.67594231     0.15400
C349        C  0.13717910  0.58937455  0.34847135    -0.17500
C350        C  0.10502020  0.55262305  0.32249313    -0.19700
C351        C  0.08811480  0.50152060  0.33604035     0.21000
C352        C  0.10304266  0.48748473  0.37659725    -0.02600
C353        C  0.13637071  0.52436046  0.40226736    -0.05700
C354        C  0.15356474  0.57555546  0.38814571     0.21300
C355        C  0.15364589  0.50959893  0.44125397     0.19400
C356        C  0.13626169  0.45868666  0.45520189    -0.17100
C357        C  0.10260287  0.42237952  0.43026277    -0.19400
C358        C  0.08630157  0.43615302  0.39054975     0.20900
C359        C  0.05592272  0.39899571  0.36323634    -0.32400
C360        C  0.04371308  0.41224341  0.32149312     0.01600
C361        C  0.05878072  0.46370154  0.30862163    -0.23700
C362        C  0.18714931  0.61182496  0.41368155    -0.26000
C363        C  0.20467941  0.59739637  0.45261933     0.07300
C364        C  0.18854991  0.54573533  0.46527439    -0.27000
H365        H  0.14994084  0.62845128  0.33707727     0.12000
H366        H  0.09389896  0.56404093  0.29144573     0.13100
H367        H  0.14896926  0.44685057  0.48529120     0.12200
H368        H  0.09026740  0.38320295  0.44143739     0.11500
H369        H  0.04528164  0.35914380  0.37262120     0.16800
H370        H  0.04998483  0.47368431  0.27604789     0.12700
H371        H  0.19962560  0.65129964  0.40325537     0.15600
H372        H  0.20368501  0.53309564  0.49337618     0.15400
C373        C  0.92817529  0.36815987  0.57987126    -0.17500
C374        C  0.89077002  0.36766145  0.55255634    -0.19700
C375        C  0.84474150  0.34779787  0.56769157     0.21000
C376        C  0.83640289  0.32801488  0.61067076    -0.02600
C377        C  0.87423390  0.33054233  0.63886698    -0.05700
C378        C  0.92033857  0.35035066  0.62332539     0.21300
C379        C  0.86590088  0.31419227  0.68282478     0.19400
C380        C  0.81988225  0.29346280  0.69775369    -0.17100
C381        C  0.78242901  0.28905061  0.66931498    -0.19400
C382        C  0.79031599  0.30667213  0.62581606     0.20900
C383        C  0.75295033  0.30369104  0.59738016    -0.32400
C384        C  0.76065640  0.32449629  0.55466664     0.01600
C385        C  0.80701782  0.34798704  0.54082822    -0.23700
C386        C  0.95777359  0.35343749  0.65182765    -0.28300
C387        C  0.95004570  0.34089627  0.69674026     0.07300
C388        C  0.90363728  0.32044961  0.71150742    -0.27000
H389        H  0.96332399  0.38372002  0.56735958     0.12000
H390        H  0.89784433  0.38263401  0.51947545     0.13100
H391        H  0.81284576  0.28063845  0.73145577     0.12200
H392        H  0.74726583  0.27272620  0.68160720     0.11500
H393        H  0.71774879  0.28528592  0.60880412     0.16800
H394        H  0.81417041  0.36718131  0.50946112     0.12700
H395        H  0.99281283  0.36681984  0.63906924     0.15600
H396        H  0.89658893  0.31144042  0.74590381     0.15400
C397        C  0.82370740  0.39411122  0.35864339    -0.17500
C398        C  0.86197637  0.39624430  0.33211725    -0.19700
C399        C  0.88554876  0.36047988  0.33725752     0.21000
C400        C  0.87040421  0.32206753  0.36942438    -0.02600
C401        C  0.83186747  0.32012302  0.39646685    -0.05700
C402        C  0.80844060  0.35630798  0.39090930     0.21300
C403        C  0.81693937  0.28220517  0.42911628     0.19400
C404        C  0.84079782  0.24664965  0.43434711    -0.17100
C405        C  0.87879639  0.24834933  0.40733505    -0.19400
C406        C  0.89387044  0.28580242  0.37468001     0.20900
C407        C  0.93208211  0.28797354  0.34739204    -0.32400
C408        C  0.94745560  0.32657975  0.31573113     0.01600
C409        C  0.92413845  0.36265327  0.31094584    -0.23700
C410        C  0.77050192  0.35450088  0.41800393    -0.28300
C411        C  0.75580482  0.31746271  0.45104341     0.07300
C412        C  0.77873906  0.28088352  0.45608284    -0.27000
H413        H  0.80614614  0.42222704  0.35404518     0.12000
H414        H  0.87317439  0.42593671  0.30756668     0.13100
H415        H  0.83003657  0.21743781  0.45935165     0.12200
H416        H  0.89647446  0.22038181  0.41206176     0.11500
H417        H  0.95044976  0.26048886  0.35119996     0.16800
H418        H  0.93624140  0.39236087  0.28648975     0.12700
H419        H  0.75304086  0.38286367  0.41418898     0.15600
H420        H  0.76729442  0.25212126  0.48141366     0.15400
C421        C  0.57050262  0.42561689  0.36894962    -0.17500
C422        C  0.56372938  0.46180323  0.33989611    -0.19700
C423        C  0.59797227  0.50965747  0.33508040     0.21000
C424        C  0.63943876  0.52121122  0.35982935    -0.02600
C425        C  0.64618400  0.48471560  0.38937447    -0.05700
C426        C  0.61158877  0.43663241  0.39385822     0.21300
C427        C  0.68763309  0.49625234  0.41421328     0.19400
C428        C  0.72177117  0.54417530  0.40946353    -0.17100
C429        C  0.71505866  0.58031266  0.38028418    -0.19400
C430        C  0.67411124  0.56925218  0.35516381     0.20900
C431        C  0.66700326  0.60548454  0.32588053    -0.32400
C432        C  0.62549319  0.59441319  0.30154209     0.01600
C433        C  0.59133090  0.54627657  0.30623150    -0.23700
C434        C  0.61873189  0.40049656  0.42310458    -0.28300
C435        C  0.65978957  0.41191626  0.44820167     0.07300
C436        C  0.69431738  0.45961867  0.44314031    -0.27000
H437        H  0.54354174  0.38898289  0.37196809     0.12000
H438        H  0.53163845  0.45234634  0.32117196     0.13100
H439        H  0.75374624  0.55375102  0.42837475     0.12200
H440        H  0.74197792  0.61697796  0.37734874     0.11500
H441        H  0.69301825  0.64270108  0.32302376     0.16800
H442        H  0.55936141  0.53758306  0.28739261     0.12700
H443        H  0.59230810  0.36350323  0.42658065     0.15600
H444        H  0.72677695  0.46785423  0.46099808     0.15400
C445        C  0.59183518  0.47574356  0.61451189    -0.17500
C446        C  0.59292898  0.52109899  0.63604335    -0.19700
C447        C  0.63346163  0.56371890  0.63566791     0.21000
C448        C  0.67372054  0.55991732  0.61456324    -0.02600
C449        C  0.67290556  0.51385697  0.59360209    -0.05700
C450        C  0.63146126  0.47190816  0.59274735     0.21300
C451        C  0.71330790  0.51018586  0.57269227     0.19400
C452        C  0.75408740  0.55238105  0.57297965    -0.17100
C453        C  0.75456092  0.59830688  0.59281031    -0.19400
C454        C  0.71448288  0.60255553  0.61334184     0.20900
C455        C  0.71399566  0.64925338  0.63113379    -0.32400
C456        C  0.67351401  0.65419212  0.65066703     0.01600
C457        C  0.63399257  0.61053791  0.65455411    -0.23700
C458        C  0.63025649  0.42736077  0.56945940    -0.28300
C459        C  0.67031820  0.42386286  0.54827694     0.07300
C460        C  0.71200873  0.46471551  0.55122380    -0.27000
H461        H  0.55982168  0.44379706  0.61452058     0.12000
H462        H  0.56169522  0.52323537  0.65207908     0.13100
H463        H  0.78536993  0.55019569  0.55705329     0.12200
H464        H  0.78618212  0.63071074  0.59168950     0.11500
H465        H  0.74458005  0.68257531  0.62779246     0.16800
H466        H  0.60311666  0.61352876  0.67064525     0.12700
H467        H  0.59809696  0.39592846  0.56719416     0.15600
H468        H  0.74323203  0.46132202  0.53601293     0.15400
C469        C  0.55032528  0.11326738  0.59229172    -0.17500
C470        C  0.51450239  0.08207348  0.61867661    -0.19700
C471        C  0.48382406  0.10247371  0.64098033     0.21000
C472        C  0.48922956  0.15486790  0.63609483    -0.02600
C473        C  0.52630066  0.18663453  0.61078656    -0.05700
C474        C  0.55687586  0.16574250  0.58847451     0.21300
C475        C  0.53300171  0.23946934  0.60823807     0.19400
C476        C  0.50183707  0.25982416  0.62952009    -0.17100
C477        C  0.46459075  0.22825907  0.65363752    -0.19400
C478        C  0.45836358  0.17596951  0.65751051     0.20900
C479        C  0.42305096  0.14505197  0.68415547    -0.32400
C480        C  0.41912685  0.09373556  0.69175200     0.01600
C481        C  0.44917526  0.07224067  0.66949959    -0.23700
C482        C  0.59313840  0.19776131  0.56268392    -0.28300
C483        C  0.59992062  0.25052124  0.56039740     0.07300
C484        C  0.57041007  0.27106603  0.58407468    -0.27000
H485        H  0.57336888  0.09646294  0.57538953     0.12000
H486        H  0.51093780  0.04200353  0.62179752     0.13100
H487        H  0.50629781  0.30021944  0.62753966     0.12200
H488        H  0.44118466  0.24497605  0.67006407     0.11500
H489        H  0.40037468  0.16190127  0.70172730     0.16800
H490        H  0.44692445  0.03301726  0.67589943     0.12700
H491        H  0.61586201  0.18184449  0.54422610     0.15600
H492        H  0.57517933  0.31136988  0.58179927     0.15400
C493        C  0.57581275  0.16114773  0.35876384    -0.17500
C494        C  0.53916978  0.13028122  0.33291656    -0.19700
C495        C  0.49272329  0.12128461  0.34566240     0.21000
C496        C  0.48316273  0.14238518  0.38555134    -0.02600
C497        C  0.52011231  0.17450200  0.41107368    -0.05700
C498        C  0.56667210  0.18423179  0.39748394     0.21300
C499        C  0.51031520  0.19862629  0.44912333     0.19400
C500        C  0.46398258  0.18877847  0.46248667    -0.17100
C501        C  0.42745632  0.15630224  0.43768029    -0.19400
C502        C  0.43660002  0.13368917  0.39874188     0.20900
C503        C  0.40002367  0.10555662  0.37126119    -0.32400
C504        C  0.40941851  0.08792546  0.33001719     0.01600
C505        C  0.45570488  0.09450711  0.31793772    -0.23700
C506        C  0.60309271  0.21773376  0.42229738    -0.28300
C507        C  0.59350416  0.24247536  0.45996846     0.07300
C508        C  0.54685134  0.23327274  0.47251991    -0.27000
H509        H  0.61129482  0.16803606  0.34784659     0.12000
H510        H  0.54715510  0.11428359  0.30245803     0.13100
H511        H  0.45595361  0.20676678  0.49184958     0.12200
H512        H  0.39195931  0.15014227  0.44823345     0.11500
H513        H  0.36437007  0.10169911  0.37993703     0.16800
H514        H  0.46288926  0.08187039  0.28565184     0.12700
H515        H  0.63886720  0.22501198  0.41206744     0.15600
H516        H  0.53864462  0.25415182  0.49980032     0.15400
loop_ 
_geom_bond_atom_site_label_1 
_geom_bond_atom_site_label_2 
_geom_bond_distance 
_geom_bond_site_symmetry_2 
_ccdc_geom_bond_type 
C1            H2   1.111       .  S
C1            C7   1.545       .  S
C1            C6   1.541       .  S
C1            C5   1.538       .  S
C3            H4   1.110       .  S
C3            C9   1.541       .  S
C3            C8   1.540       .  S
C3           C10   1.548       .  S
C5            C8   1.373       .  D
C5          C435   1.491       .  S
C6            C9   1.376       .  D
C6          C507   1.495       .  S
C7           C10   1.386       .  D
C7          C411   1.490       .  S
C8          C459   1.483       .  S
C9          C483   1.488       .  S
C10         C384   1.505       .  S
C11          H12   1.106       .  S
C11          C17   1.551       .  S
C11          C16   1.535       .  S
C11          C15   1.542       .  S
C13          H14   1.111       .  S
C13          C19   1.539       .  S
C13          C18   1.535       .  S
C13          C20   1.542       .  S
C15          C18   1.379       .  D
C15         C291   1.501       .  S
C16          C19   1.374       .  D
C16         C336   1.480       .  S
C17          C20   1.387       .  D
C17         C267   1.513       .  S
C18         C315   1.482       .  S
C19         C363   1.498       .  S
C20         C240   1.486       .  S
N21          C25   1.359       .  A
N21          C22   1.362       .  A
N21         C432   1.446       .  S
C22          C23   1.383       .  A
C22         C219   1.475       .  S
C23          C24   1.367       .  A
C23          H26   1.083       .  S
C24          C25   1.378       .  A
C24          H27   1.082       .  S
C25         C312   1.468       .  S
N28          C32   1.365       .  A
N28          C29   1.363       .  A
N28         C456   1.449       .  S
C29          C30   1.381       .  A
C29         C192   1.481       .  S
C30          C31   1.364       .  A
C30          H33   1.083       .  S
C31          C32   1.383       .  A
C31          H34   1.083       .  S
C32         C288   1.483       .  S
N35          C39   1.371       .  A
N35          C36   1.370       .  A
N35         C264   1.458   1_545  S
C36          C37   1.379       .  A
C36         C171   1.483   1_545  S
C37          C38   1.362       .  A
C37          H40   1.083       .  S
C38          C39   1.382       .  A
C38          H41   1.083       .  S
C39         C480   1.486       .  S
N42          C46   1.359       .  A
N42          C43   1.359       .  A
N42         C243   1.439   1_545  S
C43          C44   1.383       .  A
C43         C144   1.480       .  S
C44          C45   1.372       .  A
C44          H47   1.082       .  S
C45          C46   1.380       .  A
C45          H48   1.082       .  S
C46         C504   1.476       .  S
N49          C53   1.360   1_655  A
N49          C50   1.359       .  A
N49         C408   1.440       .  S
C50          C51   1.381   1_655  A
C50         C123   1.477       .  S
C51          C52   1.371       .  A
C51          H54   1.082       .  S
C52          C53   1.381       .  A
C52          H55   1.082       .  S
C53         C360   1.478       .  S
N56          C60   1.367   1_655  A
N56          C57   1.364       .  A
N56         C387   1.455       .  S
C57          C58   1.379   1_655  A
C57          C99   1.479       .  S
C58          C59   1.367       .  A
C58          H61   1.083       .  S
C59          C60   1.383       .  A
C59          H62   1.083       .  S
C60         C339   1.482       .  S
O63          C78   1.259       .  A
O63         Al71   1.903   1_456  S
C64         C120   1.471       .  S
C64          O74   1.263   1_545  A
C64          O65   1.265       .  A
O65         Al67   1.925   1_545  S
O66          C68   1.261       .  A
O66         Al67   1.887   1_455  S
Al67         O75   1.898   1_564  S
Al67         O77   1.915   1_654  S
Al67         O76   1.773       .  S
C68         C147   1.486       .  S
C68          O81   1.268       .  A
O69          C79   1.258       .  A
O69         Al71   1.901       .  S
O70          C83   1.261       .  A
O70         Al80   1.886       .  S
Al71         O84   1.945   1_554  S
Al71         O81   1.942   1_655  S
Al71         O76   1.785       .  S
O72          C79   1.263       .  A
O72         Al80   1.927   1_554  S
O73          C82   1.266   1_565  A
O73         Al80   1.940       .  S
O74         Al80   1.912   1_554  S
O75          C82   1.259       .  A
O76         Al80   1.783   1_554  S
O77          C78   1.261       .  A
C78         C168   1.470       .  S
C79         C216   1.471       .  S
C82          C96   1.479       .  S
C83         C195   1.470       .  S
C83          O84   1.268       .  A
C85          C86   1.401   1_455  A
C85          C90   1.404   1_455  A
C85         H101   1.084       .  S
C86          C87   1.404       .  A
C86         H102   1.083   1_655  S
C87          C97   1.406       .  A
C87          C88   1.412       .  A
C88          C94   1.412       .  A
C88          C89   1.415       .  A
C89          C91   1.412       .  A
C89          C90   1.412       .  A
C90          C98   1.406       .  A
C91         C100   1.405       .  A
C91          C92   1.404       .  A
C92          C93   1.400       .  A
C92         H103   1.083       .  S
C93          C94   1.404       .  A
C93         H104   1.084       .  S
C94          C95   1.405       .  A
C95          C96   1.405       .  A
C95         H105   1.085       .  S
C96          C97   1.407       .  A
C97         H106   1.084       .  S
C98          C99   1.406       .  A
C98         H107   1.085   1_655  S
C99         C100   1.405       .  A
C100        H108   1.084       .  S
C109        C110   1.400       .  A
C109        C114   1.404       .  A
C109        H125   1.083       .  S
C110        C111   1.404       .  A
C110        H126   1.084       .  S
C111        C121   1.406       .  A
C111        C112   1.413       .  A
C112        C118   1.413       .  A
C112        C113   1.416       .  A
C113        C115   1.412       .  A
C113        C114   1.412       .  A
C114        C122   1.406       .  A
C115        C124   1.407       .  A
C115        C116   1.404       .  A
C116        C117   1.401       .  A
C116        H127   1.083       .  S
C117        C118   1.404       .  A
C117        H128   1.084       .  S
C118        C119   1.406       .  A
C119        C120   1.404       .  A
C119        H129   1.085       .  S
C120        C121   1.404       .  A
C121        H130   1.085       .  S
C122        C123   1.405       .  A
C122        H131   1.084       .  S
C123        C124   1.405       .  A
C124        H132   1.085       .  S
C133        C134   1.398       .  A
C133        C138   1.403       .  A
C133        H149   1.084       .  S
C134        C135   1.403       .  A
C134        H150   1.084       .  S
C135        C145   1.400       .  A
C135        C136   1.411   1_545  A
C136        C142   1.414       .  A
C136        C137   1.415       .  A
C137        C139   1.412       .  A
C137        C138   1.411   1_565  A
C138        C146   1.401   1_545  A
C139        C148   1.410       .  A
C139        C140   1.405       .  A
C140        C141   1.403       .  A
C140        H151   1.083       .  S
C141        C142   1.405       .  A
C141        H152   1.083       .  S
C142        C143   1.411       .  A
C143        C144   1.406   1_565  A
C143        H153   1.084       .  S
C144        C145   1.405       .  A
C145        H154   1.085       .  S
C146        C147   1.408       .  A
C146        H155   1.085   1_565  S
C147        C148   1.409       .  A
C148        H156   1.084       .  S
C157        C158   1.403   1_545  A
C157        C162   1.405   1_545  A
C157        H173   1.083       .  S
C158        C159   1.405       .  A
C158        H174   1.083       .  S
C159        C169   1.408       .  A
C159        C160   1.413       .  A
C160        C166   1.413       .  A
C160        C161   1.415       .  A
C161        C163   1.411       .  A
C161        C162   1.414       .  A
C162        C170   1.411   1_565  A
C163        C172   1.401       .  A
C163        C164   1.403       .  A
C164        C165   1.398       .  A
C164        H175   1.083       .  S
C165        C166   1.402       .  A
C165        H176   1.084       .  S
C166        C167   1.403       .  A
C167        C168   1.401       .  A
C167        H177   1.085       .  S
C168        C169   1.405       .  A
C169        H178   1.084       .  S
C170        C171   1.406   1_545  A
C170        H179   1.084       .  S
C171        C172   1.406       .  A
C172        H180   1.085       .  S
C181        C182   1.402       .  A
C181        C186   1.404       .  A
C181        H197   1.083       .  S
C182        C183   1.404       .  A
C182        H198   1.083       .  S
C183        C193   1.408       .  A
C183        C184   1.413       .  A
C184        C190   1.411       .  A
C184        C185   1.414       .  A
C185        C187   1.412       .  A
C185        C186   1.413       .  A
C186        C194   1.408       .  A
C187        C196   1.401       .  A
C187        C188   1.403       .  A
C188        C189   1.398       .  A
C188        H199   1.084       .  S
C189        C190   1.403       .  A
C189        H200   1.084       .  S
C190        C191   1.401       .  A
C191        C192   1.406       .  A
C191        H201   1.085       .  S
C192        C193   1.406       .  A
C193        H202   1.084       .  S
C194        C195   1.405       .  A
C194        H203   1.084       .  S
C195        C196   1.402       .  A
C196        H204   1.085       .  S
C205        C206   1.401       .  A
C205        C210   1.405       .  A
C205        H221   1.084       .  S
C206        C207   1.404       .  A
C206        H222   1.083       .  S
C207        C217   1.407       .  A
C207        C208   1.413       .  A
C208        C214   1.413       .  A
C208        C209   1.414       .  A
C209        C211   1.411       .  A
C209        C210   1.412       .  A
C210        C218   1.407       .  A
C211        C220   1.404       .  A
C211        C212   1.404       .  A
C212        C213   1.399       .  A
C212        H223   1.083       .  S
C213        C214   1.403       .  A
C213        H224   1.084       .  S
C214        C215   1.404       .  A
C215        C216   1.403       .  A
C215        H225   1.085       .  S
C216        C217   1.404       .  A
C217        H226   1.084       .  S
C218        C219   1.407       .  A
C218        H227   1.084       .  S
C219        C220   1.406       .  A
C220        H228   1.085       .  S
C229        C230   1.402       .  A
C229        C234   1.404       .  A
C229        H245   1.083       .  S
C230        C231   1.404       .  A
C230        H246   1.083       .  S
C231        C241   1.408       .  A
C231        C232   1.413       .  A
C232        C238   1.411       .  A
C232        C233   1.414       .  A
C233        C235   1.412       .  A
C233        C234   1.413       .  A
C234        C242   1.408       .  A
C235        C244   1.402       .  A
C235        C236   1.403       .  A
C236        C237   1.399       .  A
C236        H247   1.084       .  S
C237        C238   1.404       .  A
C237        H248   1.084       .  S
C238        C239   1.402       .  A
C239        C240   1.405       .  A
C239        H249   1.085       .  S
C240        C241   1.406       .  A
C241        H250   1.084       .  S
C242        C243   1.405       .  A
C242        H251   1.084       .  S
C243        C244   1.404       .  A
C244        H252   1.084       .  S
C253        C254   1.403       .  A
C253        C258   1.406       .  A
C253        H269   1.084       .  S
C254        C255   1.405       .  A
C254        H270   1.084       .  S
C255        C265   1.410       .  A
C255        C256   1.410       .  A
C256        C262   1.408       .  A
C256        C257   1.416       .  A
C257        C259   1.409       .  A
C257        C258   1.408       .  A
C258        C266   1.409       .  A
C259        C268   1.406       .  A
C259        C260   1.404       .  A
C260        C261   1.400       .  A
C260        H271   1.084       .  S
C261        C262   1.404       .  A
C261        H272   1.083       .  S
C262        C263   1.404       .  A
C263        C264   1.413       .  A
C263        H273   1.080       .  S
C264        C265   1.412       .  A
C265        H274   1.080   1_565  S
C266        C267   1.415       .  A
C266        H275   1.079       .  S
C267        C268   1.412       .  A
C268        H276   1.082       .  S
C277        C278   1.403       .  A
C277        C282   1.406       .  A
C277        H293   1.084       .  S
C278        C279   1.405       .  A
C278        H294   1.083       .  S
C279        C289   1.410       .  A
C279        C280   1.414       .  A
C280        C286   1.408       .  A
C280        C281   1.412       .  A
C281        C283   1.411       .  A
C281        C282   1.408       .  A
C282        C290   1.405       .  A
C283        C292   1.401       .  A
C283        C284   1.402       .  A
C284        C285   1.396       .  A
C284        H295   1.084       .  S
C285        C286   1.403       .  A
C285        H296   1.084       .  S
C286        C287   1.396       .  A
C287        C288   1.406       .  A
C287        H297   1.085       .  S
C288        C289   1.407       .  A
C289        H298   1.084       .  S
C290        C291   1.413       .  A
C290        H299   1.082       .  S
C291        C292   1.407       .  A
C292        H300   1.083       .  S
C301        C302   1.400       .  A
C301        C306   1.403       .  A
C301        H317   1.084       .  S
C302        C303   1.403       .  A
C302        H318   1.084       .  S
C303        C313   1.403       .  A
C303        C304   1.413       .  A
C304        C310   1.412       .  A
C304        C305   1.411       .  A
C305        C307   1.412       .  A
C305        C306   1.412       .  A
C306        C314   1.404       .  A
C307        C316   1.401       .  A
C307        C308   1.403       .  A
C308        C309   1.398       .  A
C308        H319   1.084       .  S
C309        C310   1.403       .  A
C309        H320   1.084       .  S
C310        C311   1.401       .  A
C311        C312   1.402       .  A
C311        H321   1.085       .  S
C312        C313   1.402       .  A
C313        H322   1.084       .  S
C314        C315   1.403       .  A
C314        H323   1.085       .  S
C315        C316   1.405       .  A
C316        H324   1.084       .  S
C325        C326   1.396       .  A
C325        C330   1.403       .  A
C325        H341   1.084       .  S
C326        C327   1.402       .  A
C326        H342   1.084       .  S
C327        C337   1.400       .  A
C327        C328   1.413       .  A
C328        C334   1.412       .  A
C328        C329   1.413       .  A
C329        C331   1.414       .  A
C329        C330   1.410       .  A
C330        C338   1.398       .  A
C331        C340   1.412       .  A
C331        C332   1.405       .  A
C332        C333   1.403       .  A
C332        H343   1.083       .  S
C333        C334   1.405       .  A
C333        H344   1.083       .  S
C334        C335   1.408       .  A
C335        C336   1.406       .  A
C335        H345   1.084       .  S
C336        C337   1.401       .  A
C337        H346   1.085       .  S
C338        C339   1.405       .  A
C338        H347   1.085       .  S
C339        C340   1.407       .  A
C340        H348   1.084       .  S
C349        C350   1.401       .  A
C349        C354   1.404       .  A
C349        H365   1.084       .  S
C350        C351   1.404       .  A
C350        H366   1.083       .  S
C351        C361   1.405       .  A
C351        C352   1.411       .  A
C352        C358   1.414       .  A
C352        C353   1.414       .  A
C353        C355   1.409       .  A
C353        C354   1.412       .  A
C354        C362   1.408       .  A
C355        C364   1.402       .  A
C355        C356   1.404       .  A
C356        C357   1.400       .  A
C356        H367   1.084       .  S
C357        C358   1.403       .  A
C357        H368   1.083       .  S
C358        C359   1.406       .  A
C359        C360   1.404       .  A
C359        H369   1.085       .  S
C360        C361   1.406       .  A
C361        H370   1.084       .  S
C362        C363   1.407       .  A
C362        H371   1.084       .  S
C363        C364   1.410       .  A
C364        H372   1.080       .  S
C373        C374   1.402       .  A
C373        C378   1.404       .  A
C373        H389   1.084       .  S
C374        C375   1.405       .  A
C374        H390   1.084       .  S
C375        C385   1.406       .  A
C375        C376   1.409       .  A
C376        C382   1.410       .  A
C376        C377   1.415       .  A
C377        C379   1.408       .  A
C377        C378   1.411       .  A
C378        C386   1.408       .  A
C379        C388   1.403       .  A
C379        C380   1.405       .  A
C380        C381   1.400       .  A
C380        H391   1.084       .  S
C381        C382   1.404       .  A
C381        H392   1.084       .  S
C382        C383   1.406       .  A
C383        C384   1.411       .  A
C383        H393   1.083       .  S
C384        C385   1.412       .  A
C385        H394   1.081       .  S
C386        C387   1.410       .  A
C386        H395   1.080       .  S
C387        C388   1.413       .  A
C388        H396   1.080       .  S
C397        C398   1.399       .  A
C397        C402   1.403       .  A
C397        H413   1.084       .  S
C398        C399   1.403       .  A
C398        H414   1.083       .  S
C399        C409   1.403       .  A
C399        C400   1.412       .  A
C400        C406   1.413       .  A
C400        C401   1.416       .  A
C401        C403   1.413       .  A
C401        C402   1.412       .  A
C402        C410   1.403       .  A
C403        C412   1.410       .  A
C403        C404   1.405       .  A
C404        C405   1.403       .  A
C404        H415   1.083       .  S
C405        C406   1.405       .  A
C405        H416   1.083       .  S
C406        C407   1.411       .  A
C407        C408   1.405       .  A
C407        H417   1.084       .  S
C408        C409   1.404       .  A
C409        H418   1.084       .  S
C410        C411   1.405       .  A
C410        H419   1.085       .  S
C411        C412   1.408       .  A
C412        H420   1.084       .  S
C421        C422   1.401       .  A
C421        C426   1.404       .  A
C421        H437   1.084       .  S
C422        C423   1.405       .  A
C422        H438   1.084       .  S
C423        C433   1.405       .  A
C423        C424   1.410       .  A
C424        C430   1.414       .  A
C424        C425   1.417       .  A
C425        C427   1.411       .  A
C425        C426   1.413       .  A
C426        C434   1.408       .  A
C427        C436   1.407       .  A
C427        C428   1.405       .  A
C428        C429   1.402       .  A
C428        H439   1.084       .  S
C429        C430   1.404       .  A
C429        H440   1.083       .  S
C430        C431   1.411       .  A
C431        C432   1.405       .  A
C431        H441   1.082       .  S
C432        C433   1.409       .  A
C433        H442   1.084       .  S
C434        C435   1.406       .  A
C434        H443   1.085       .  S
C435        C436   1.407       .  A
C436        H444   1.082       .  S
C445        C446   1.402       .  A
C445        C450   1.405       .  A
C445        H461   1.084       .  S
C446        C447   1.405       .  A
C446        H462   1.083       .  S
C447        C457   1.409       .  A
C447        C448   1.412       .  A
C448        C454   1.410       .  A
C448        C449   1.414       .  A
C449        C451   1.412       .  A
C449        C450   1.412       .  A
C450        C458   1.408       .  A
C451        C460   1.403       .  A
C451        C452   1.403       .  A
C452        C453   1.399       .  A
C452        H463   1.084       .  S
C453        C454   1.404       .  A
C453        H464   1.084       .  S
C454        C455   1.402       .  A
C455        C456   1.409       .  A
C455        H465   1.083       .  S
C456        C457   1.408       .  A
C457        H466   1.083       .  S
C458        C459   1.405       .  A
C458        H467   1.081       .  S
C459        C460   1.403       .  A
C460        H468   1.084       .  S
C469        C470   1.405       .  A
C469        C474   1.406       .  A
C469        H485   1.083       .  S
C470        C471   1.405       .  A
C470        H486   1.083       .  S
C471        C481   1.414       .  A
C471        C472   1.414       .  A
C472        C478   1.409       .  A
C472        C473   1.415       .  A
C473        C475   1.412       .  A
C473        C474   1.411       .  A
C474        C482   1.411       .  A
C475        C484   1.401       .  A
C475        C476   1.402       .  A
C476        C477   1.397       .  A
C476        H487   1.084       .  S
C477        C478   1.403       .  A
C477        H488   1.084       .  S
C478        C479   1.398       .  A
C479        C480   1.406       .  A
C479        H489   1.085       .  S
C480        C481   1.408       .  A
C481        H490   1.084       .  S
C482        C483   1.409       .  A
C482        H491   1.084       .  S
C483        C484   1.401       .  A
C484        H492   1.080       .  S
C493        C494   1.402       .  A
C493        C498   1.404       .  A
C493        H509   1.083       .  S
C494        C495   1.405       .  A
C494        H510   1.083       .  S
C495        C505   1.406       .  A
C495        C496   1.411       .  A
C496        C502   1.413       .  A
C496        C497   1.414       .  A
C497        C499   1.410       .  A
C497        C498   1.412       .  A
C498        C506   1.408       .  A
C499        C508   1.401       .  A
C499        C500   1.403       .  A
C500        C501   1.399       .  A
C500        H511   1.084       .  S
C501        C502   1.403       .  A
C501        H512   1.084       .  S
C502        C503   1.404       .  A
C503        C504   1.403       .  A
C503        H513   1.085       .  S
C504        C505   1.406       .  A
C505        H514   1.084       .  S
C506        C507   1.407       .  A
C506        H515   1.084       .  S
C507        C508   1.408       .  A
C508        H516   1.081       .  S
