geometry optimzed in LAMMPS
_audit_creation_date              2020-11-30 
_audit_creation_method            'lammps2cif' 
_symmetry_space_group_name_H-M    'P1' 
_symmetry_Int_Tables_number       1 
_symmetry_cell_setting            triclinic 
loop_ 
_symmetry_equiv_pos_as_xyz 
  x,y,z 
_cell_length_a                    24.57876081 
_cell_length_b                    24.927004868775498 
_cell_length_c                    24.850359956164773 
_cell_angle_alpha                 89.05428192800936 
_cell_angle_beta                  88.71341515232871 
_cell_angle_gamma                 89.11653623504715 
loop_ 
_atom_site_label 
_atom_site_type_symbol 
_atom_site_fract_x 
_atom_site_fract_y 
_atom_site_fract_z 
_atom_site_charge 
C1          C  0.84318203  0.82322913  0.82870473     0.86100
C2          C  0.87935386  0.79142238  0.86752533    -0.54200
C3          C  0.91091274  0.82155235  0.89944173     0.09000
C4          C  0.90269588  0.88305177  0.88909541     0.20000
C5          C  0.80940306  0.86209136  0.86491768    -0.54900
C6          C  0.84004249  0.89386468  0.89694404     0.09100
C7          C  0.88215373  0.85993051  0.79681029    -0.54400
C8          C  0.91356588  0.89167749  0.82745645     0.09700
H9          H  0.88125723  0.74784408  0.86785568     0.14200
H10         H  0.92828445  0.90820999  0.91457116    -0.00100
H11         H  0.76533413  0.86393766  0.86643993     0.14500
H12         H  0.88540014  0.85983988  0.75312710     0.14300
N13         N  0.75868856  0.93680986  0.40808384    -0.06500
N14         N  0.71396552  0.94745937  0.43712272    -0.58600
N15         N  0.81954883  0.98568036  0.29886202    -0.06200
N16         N  0.83755832  0.01273375  0.25680592    -0.60800
N17         N  0.78555372  0.94855466  0.28492610    -0.05800
N18         N  0.78062393  0.94990779  0.23254089    -0.58600
N19         N  0.79727092  0.97011197  0.42037350    -0.05500
N20         N  0.77919207  0.00391549  0.45798614    -0.61100
C21         C  0.72717079  0.98868034  0.46914407     0.95700
C22         C  0.81216814  0.99133882  0.21564158     0.95400
N23         N  0.97476439  0.95269326  0.29711832    -0.06700
N24         N  0.01092210  0.96993349  0.26029613    -0.59200
N25         N  0.92697499  0.95980307  0.42515251    -0.04800
N26         N  0.94350626  0.99805297  0.45550426    -0.60500
N27         N  0.96651719  0.92434136  0.41650730    -0.06700
N28         N  0.01058861  0.93748954  0.44125690    -0.59500
N29         N  0.93886135  0.99062743  0.30773834    -0.04500
N30         N  0.94960336  0.03434989  0.27865440    -0.60600
Mn31       Mn  0.86954707  0.97736593  0.36510152     1.18400
C32         C  0.99427697  0.02113758  0.24864993     0.97700
C33         C  0.99506635  0.98339703  0.46418167     0.98400
N34         N  0.76599674  0.82330162  0.27043584    -0.06800
N35         N  0.72217986  0.81056019  0.24336505    -0.63100
N36         N  0.80268258  0.77435707  0.38706361    -0.05600
N37         N  0.79469757  0.73820061  0.42473163    -0.63700
N38         N  0.76466616  0.81221918  0.38906896    -0.06300
N39         N  0.72980858  0.80323508  0.42828156    -0.63300
N40         N  0.80229781  0.78399612  0.26765364    -0.05200
N41         N  0.78359201  0.74458352  0.23782182    -0.64000
Mn42       Mn  0.76654464  0.88138063  0.33775881     1.10700
C43         C  0.73369517  0.76195547  0.22174458     0.99000
C44         C  0.74935889  0.75722609  0.44913139     0.99000
N45         N  0.97099562  0.80292512  0.39634423    -0.06300
N46         N  0.00708920  0.79025344  0.43326737    -0.61600
N47         N  0.92764733  0.79730148  0.26821349    -0.05600
N48         N  0.92810477  0.78155100  0.21838970    -0.58400
N49         N  0.96579690  0.83249659  0.27470114    -0.06900
N50         N  0.99408794  0.83998901  0.22998268    -0.61200
N51         N  0.93460814  0.76508126  0.39287204    -0.05900
N52         N  0.94652298  0.72523614  0.42814666    -0.58400
Mn53       Mn  0.97100805  0.87706959  0.34599903     1.20200
Mn54       Mn  0.86799227  0.77735879  0.32921401     1.10100
Cl55       Cl  0.86842469  0.87774756  0.34569707    -0.86400
C56         C  0.99247778  0.74173100  0.45339118     0.96000
C57         C  0.97274005  0.80465615  0.19622120     0.95800
N58         N  0.95607304  0.44327318  0.90974400    -0.06500
N59         N  0.99961707  0.46860425  0.92384953    -0.58600
N60         N  0.93772509  0.32697310  0.97252781    -0.06200
N61         N  0.94876399  0.29408877  0.01317193    -0.60800
N62         N  0.97538595  0.32347394  0.93454537    -0.05800
N63         N  0.01356567  0.28766976  0.94926973    -0.58600
N64         N  0.91816652  0.44536910  0.94829811    -0.05500
N65         N  0.93540252  0.47233163  0.98893929    -0.61100
C66         C  0.98577604  0.48546122  0.97305595     0.95700
C67         C  0.99617125  0.26961482  0.99891838     0.95400
N68         N  0.78420483  0.29542159  0.93602198    -0.06700
N69         N  0.77138428  0.24524800  0.94204997    -0.59200
N70         N  0.79100534  0.42947673  0.96208521    -0.04800
N71         N  0.77358460  0.46705920  0.99592712    -0.60500
N72         N  0.75163450  0.41545992  0.93065896    -0.06700
N73         N  0.70672468  0.44331028  0.94246725    -0.59500
N74         N  0.81788605  0.30919981  0.97330480    -0.04500
N75         N  0.82720857  0.26909618  0.00677040    -0.60600
Mn76       Mn  0.86549548  0.37919176  0.96496760     1.18400
C77         C  0.79701484  0.22973731  0.98726901     0.97700
C78         C  0.72095911  0.47615597  0.98257177     0.98400
N79         N  0.96275272  0.30474222  0.81388214    -0.06800
N80         N  0.99296758  0.26243289  0.82408972    -0.63100
N81         N  0.91917796  0.41584004  0.74936919    -0.05600
N82         N  0.92710245  0.44492125  0.70455275    -0.63700
N83         N  0.95778041  0.42514583  0.78368973    -0.06300
N84         N  0.99242885  0.46078115  0.76262623    -0.63300
N85         N  0.92459031  0.29412073  0.77964628    -0.05200
N86         N  0.92844828  0.24373001  0.76591513    -0.64000
Mn87       Mn  0.96461282  0.37493941  0.85942118     1.10700
C88         C  0.97234785  0.22502574  0.79277931     0.99000
C89         C  0.97284078  0.47330587  0.71303050     0.99000
N90         N  0.75364037  0.40391588  0.80876231    -0.06300
N91         N  0.72430650  0.44783704  0.81262734    -0.61600
N92         N  0.79677829  0.28453682  0.77098483    -0.05600
N93         N  0.77917782  0.25426767  0.73133198    -0.58400
N94         N  0.76154137  0.28368974  0.81151788    -0.06900
N95         N  0.71945061  0.25360786  0.79955124    -0.61200
N96         N  0.79123188  0.40782193  0.77035835    -0.05900
N97         N  0.78860624  0.45545535  0.74778843    -0.58400
Mn98       Mn  0.76090143  0.34841486  0.87239604     1.20200
Mn99       Mn  0.85834865  0.35033879  0.76446157     1.10100
Cl100      Cl  0.86224859  0.36394092  0.86487029    -0.86400
C101        C  0.74723978  0.47956060  0.77516468     0.96000
C102        C  0.73117404  0.23377365  0.74998719     0.95800
N103        N  0.40283166  0.74444807  0.93230704    -0.06500
N104        N  0.43096412  0.69974385  0.94327887    -0.58600
N105        N  0.29673410  0.81971853  0.97147926    -0.06200
N106        N  0.25471223  0.83699261  0.99995308    -0.60800
N107        N  0.28153120  0.78586868  0.93507548    -0.05800
N108        N  0.22879725  0.78001619  0.93801026    -0.58600
N109        N  0.41812777  0.78271735  0.96389760    -0.05500
N110        N  0.45679871  0.76529113  0.99656127    -0.61100
C111        C  0.46518229  0.71339701  0.98303161     0.95700
C112        C  0.21278743  0.80954968  0.98093710     0.95400
N113        N  0.32645591  0.97135538  0.93799152    -0.06700
N114        N  0.29390722  0.01196809  0.95319282    -0.59200
N115        N  0.44500233  0.90277968  0.94850514    -0.04800
N116        N  0.48649049  0.90760409  0.97978958    -0.60500
N117        N  0.44575036  0.93973877  0.91023834    -0.06700
N118        N  0.48787650  0.97033308  0.91403796    -0.59500
N119        N  0.32730426  0.93419001  0.97567785    -0.04500
N120        N  0.29586232  0.94799966  0.01700371    -0.60600
Mn121      Mn  0.37292540  0.85896652  0.96664980     1.18400
C122        C  0.27509715  0.99652827  0.00302384     0.97700
C123        C  0.51208533  0.95009925  0.95781751     0.98400
N124        N  0.27239296  0.76469709  0.80965236    -0.06800
N125        N  0.23733652  0.72672971  0.79832392    -0.63100
N126        N  0.40148807  0.78723640  0.77171306    -0.05600
N127        N  0.45070700  0.78272735  0.75113698    -0.63700
N128        N  0.39394747  0.74974770  0.80918535    -0.06300
N129        N  0.43692897  0.71880939  0.81419462    -0.63300
N130        N  0.27753132  0.79820888  0.76849424    -0.05200
N131        N  0.24607816  0.78295559  0.72839145    -0.64000
Mn132      Mn  0.33620828  0.75887155  0.87230909     1.10700
C133        C  0.22051961  0.73822462  0.74768577     0.99000
C134        C  0.47193870  0.74059714  0.77879734     0.99000
N135        N  0.42703313  0.95042946  0.78914105    -0.06300
N136        N  0.46423410  0.98475526  0.77088683    -0.61600
N137        N  0.29209264  0.92379499  0.78363214    -0.05600
N138        N  0.23981598  0.92668071  0.77464322    -0.58400
N139        N  0.30466413  0.96050601  0.81852435    -0.06900
N140        N  0.26171974  0.98850928  0.83359744    -0.61200
N141        N  0.41622733  0.91504028  0.75246906    -0.05900
N142        N  0.44553233  0.92574748  0.70794703    -0.58400
Mn143      Mn  0.37660536  0.95758699  0.86314980     1.20200
Mn144      Mn  0.34685040  0.85665024  0.76524457     1.10100
Cl145      Cl  0.35859638  0.85774754  0.86628713    -0.86400
C146        C  0.47639808  0.96875946  0.72017347     0.96000
C147        C  0.22174646  0.96862529  0.80447211     0.95800
C148        C  0.41104276  0.34328881  0.90745388     0.86100
C149        C  0.43914632  0.37852049  0.86364687    -0.54200
C150        C  0.40519375  0.41187103  0.83455766     0.09000
C151        C  0.34432529  0.40591187  0.85324274     0.20000
C152        C  0.37876819  0.38426682  0.94303044    -0.54900
C153        C  0.34354159  0.41774829  0.91521646     0.09100
C154        C  0.36706929  0.31343936  0.87747219    -0.54400
C155        C  0.33191538  0.34466091  0.84794715     0.09700
H156        H  0.48288303  0.37678765  0.85726475     0.14200
H157        H  0.31611510  0.43223322  0.83011547    -0.00100
H158        H  0.38296250  0.38639996  0.98623590     0.14500
H159        H  0.36531849  0.27010239  0.87990119     0.14300
C160        C  0.40620109  0.83613018  0.40579883     0.86100
C161        C  0.37282198  0.87576407  0.44038117    -0.54200
C162        C  0.34588259  0.91516076  0.41208326     0.09000
C163        C  0.35623383  0.91091684  0.34978272     0.20000
C164        C  0.36543162  0.81444581  0.36576896    -0.54900
C165        C  0.33909883  0.85282607  0.33558818     0.09100
C166        C  0.44488632  0.87130551  0.37109224    -0.54400
C167        C  0.41959232  0.91103048  0.34148657     0.09700
H168        H  0.36894205  0.87111053  0.48380658     0.14200
H169        H  0.33486544  0.94256661  0.32601254    -0.00100
H170        H  0.35949418  0.77179815  0.36042734     0.14500
H171        H  0.48873976  0.86561106  0.37115267     0.14300
C172        C  0.91633508  0.40225938  0.33276424     0.86100
C173        C  0.87761827  0.43490711  0.36959717    -0.54200
C174        C  0.84521036  0.40497512  0.40393805     0.09000
C175        C  0.85510783  0.34315226  0.39706797     0.20000
C176        C  0.94887845  0.36552211  0.37155336    -0.54900
C177        C  0.91760509  0.33431353  0.40605077     0.09100
C178        C  0.87852463  0.36357868  0.30337621    -0.54400
C179        C  0.84586730  0.33202081  0.33604261     0.09700
H180        H  0.87576761  0.47838937  0.36745767     0.14200
H181        H  0.82919038  0.31834337  0.42454178    -0.00100
H182        H  0.99301426  0.36438721  0.37106619     0.14500
H183        H  0.87878781  0.36123265  0.25985132     0.14300
N184        N  0.20452183  0.05326713  0.70795417    -0.06500
N185        N  0.21631948  0.05011554  0.75891041    -0.58600
N186        N  0.20230614  0.01880795  0.57479946    -0.06200
N187        N  0.21940658  0.98593350  0.53610867    -0.60800
N188        N  0.24043896  0.05283408  0.58596765    -0.05800
N189        N  0.28440012  0.04342980  0.55535583    -0.58600
N190        N  0.16946398  0.01631139  0.69662908    -0.05500
N191        N  0.15700475  0.98714760  0.73926640    -0.61100
C192        C  0.18877480  0.00668838  0.77731861     0.95700
C193        C  0.27067728  0.00225478  0.52342009     0.95400
N194        N  0.04289005  0.06918500  0.55150794    -0.06700
N195        N  0.01073733  0.06214815  0.51152534    -0.59200
N196        N  0.05071924  0.01282006  0.67432516    -0.04800
N197        N  0.03417134  0.97443384  0.70836078    -0.60500
N198        N  0.01353870  0.05079102  0.67043920    -0.06700
N199        N  0.97047562  0.03869375  0.70104698    -0.59500
N200        N  0.07928368  0.03015394  0.55463877    -0.04500
N201        N  0.07280620  0.99524488  0.51687690    -0.60600
Mn202      Mn  0.12613838  0.01740613  0.62436255     1.18400
C203        C  0.03008722  0.01619137  0.49100023     0.97700
C204        C  0.98407782  0.99143141  0.72542867     0.98400
N205        N  0.23591252  0.17582773  0.59060706    -0.06800
N206        N  0.26778349  0.17253041  0.54787117    -0.63100
N207        N  0.18799324  0.21835209  0.70709975    -0.05600
N208        N  0.20295781  0.25829157  0.73861341    -0.63700
N209        N  0.22227135  0.17764298  0.71174467    -0.06300
N210        N  0.26035938  0.18879323  0.74648580    -0.63300
N211        N  0.19786443  0.21309951  0.58433075    -0.05200
N212        N  0.20247627  0.23523133  0.53649967    -0.64000
Mn213      Mn  0.22804227  0.11426926  0.65016645     1.10700
C214        C  0.24553789  0.20890206  0.51450945     0.99000
C215        C  0.24823120  0.23899162  0.76355512     0.99000
N216        N  0.02233130  0.17092279  0.68374604    -0.06300
N217        N  0.99039628  0.16218936  0.72560425    -0.61600
N218        N  0.06990262  0.22912161  0.57047592    -0.05600
N219        N  0.06196614  0.27129705  0.53797276    -0.58400
N220        N  0.03223747  0.19342615  0.56261724    -0.06900
N221        N  0.99780192  0.21089085  0.52531490    -0.61200
N222        N  0.06026089  0.20555504  0.69427142    -0.05900
N223        N  0.05482205  0.22070285  0.74424104    -0.58400
Mn224      Mn  0.02595263  0.12158467  0.61613968     1.20200
Mn225      Mn  0.12859997  0.21977344  0.63916779     1.10100
Cl226      Cl  0.12737040  0.11869140  0.63201261    -0.86400
C227        C  0.01016667  0.19444502  0.76269029     0.96000
C228        C  0.01684094  0.25973366  0.50975900     0.95800
N229        N  0.05160507  0.69709782  0.20624661    -0.06500
N230        N  0.04971888  0.74946718  0.21005642    -0.58600
N231        N  0.03409212  0.56152263  0.20031787    -0.06200
N232        N  0.00196839  0.52210833  0.21746883    -0.60800
N233        N  0.06729446  0.57527107  0.23829065    -0.05800
N234        N  0.05802515  0.54513168  0.28215346    -0.58600
N235        N  0.01579998  0.68174231  0.17150138    -0.05500
N236        N  0.98895513  0.72314927  0.15181418    -0.61100
C237        C  0.00972055  0.76525601  0.17660357     0.95700
C238        C  0.01742910  0.51156692  0.26864709     0.95400
N239        N  0.08395311  0.55129393  0.03612369    -0.06700
N240        N  0.07119594  0.52340966  0.99424162    -0.59200
N241        N  0.01274641  0.66230674  0.05387708    -0.04800
N242        N  0.96871459  0.69037326  0.04060074    -0.60500
N243        N  0.05149260  0.66927895  0.01765478    -0.06700
N244        N  0.03493541  0.70287746  0.97903199    -0.59500
N245        N  0.04685559  0.54582599  0.07502752    -0.04500
N246        N  0.00854163  0.51398990  0.06023589    -0.60600
Mn247      Mn  0.02629406  0.61130543  0.12636623     1.18400
C248        C  0.02426916  0.50125555  0.01018771     0.97700
C249        C  0.98321768  0.71650959  0.99437231     0.98400
N250        N  0.19494153  0.60244635  0.23390003    -0.06800
N251        N  0.20855621  0.57049576  0.27352643    -0.63100
N252        N  0.21508185  0.72149867  0.18711224    -0.05600
N253        N  0.25283352  0.75477801  0.20394811    -0.63700
N254        N  0.17508089  0.71850127  0.22309166    -0.06300
N255        N  0.18537057  0.74926335  0.26450321    -0.63300
N256        N  0.23377187  0.60420875  0.19647395    -0.05200
N257        N  0.27475758  0.57308639  0.20958612    -0.64000
Mn258      Mn  0.12085957  0.64801435  0.22752187     1.10700
C259        C  0.25802393  0.55277225  0.25750213     0.99000
C260        C  0.23327097  0.77304186  0.25201633     0.99000
N261        N  0.16868118  0.69798161  0.02649031    -0.06300
N262        N  0.15195587  0.74080755  0.00005486    -0.61600
N263        N  0.24302517  0.58836889  0.06659118    -0.05600
N264        N  0.28672866  0.55680550  0.05863603    -0.58400
N265        N  0.20698054  0.57828729  0.02988278    -0.06900
N266        N  0.22530919  0.54048748  0.99662147    -0.61200
N267        N  0.20352051  0.71053278  0.06315065    -0.05900
N268        N  0.21084589  0.76244857  0.06214218    -0.58400
Mn269      Mn  0.12902693  0.62366860  0.02603521     1.20200
Mn270      Mn  0.22667183  0.65588178  0.12692179     1.10100
Cl271      Cl  0.12644284  0.63322493  0.12727133    -0.86400
C272        C  0.18150652  0.78051004  0.01992466     0.96000
C273        C  0.27537719  0.52691331  0.01465161     0.95800
N274        N  0.68338590  0.05533926  0.00170179    -0.06500
N275        N  0.71229382  0.04369602  0.95742261    -0.58600
N276        N  0.56986838  0.01773084  0.05932348    -0.06200
N277        N  0.55266833  0.97223550  0.04125217    -0.60800
N278        N  0.56292676  0.05687738  0.02327649    -0.05800
N279        N  0.54139737  0.03814532  0.97998925    -0.58600
N280        N  0.69103764  0.01785008  0.03840881    -0.05500
N281        N  0.72569949  0.98044466  0.02026847    -0.61100
C282        C  0.73965237  0.99729436  0.96966834     0.95700
C283        C  0.53678047  0.98584774  0.99188311     0.95400
N284        N  0.58727343  0.04216699  0.22433298    -0.06700
N285        N  0.55472839  0.02676223  0.26510797    -0.59200
N286        N  0.70712566  0.02543155  0.15756956    -0.04800
N287        N  0.75496164  0.00509294  0.14469734    -0.60500
N288        N  0.71093035  0.06207361  0.19447412    -0.06700
N289        N  0.76193551  0.06781405  0.20646522    -0.59500
N290        N  0.58511687  0.00768467  0.18506109    -0.04500
N291        N  0.55215177  0.96784021  0.19884877    -0.60600
Mn292      Mn  0.63762651  0.01581384  0.11140476     1.18400
C293        C  0.53216712  0.98057450  0.24843954     0.97700
C294        C  0.78810689  0.02810224  0.17933376     0.98400
N295        N  0.55786986  0.18843000  0.02246789    -0.06800
N296        N  0.52200013  0.20796696  0.98717737    -0.63100
N297        N  0.68728220  0.21133670  0.05905879    -0.05600
N298        N  0.73792466  0.22671116  0.06216316    -0.63700
N299        N  0.68361670  0.17569384  0.02096299    -0.06300
N300        N  0.73128680  0.16548450  0.99890197    -0.63300
N301        N  0.56098090  0.22155775  0.06285694    -0.05200
N302        N  0.52700950  0.26281579  0.05663799    -0.64000
Mn303      Mn  0.62025323  0.12040711  0.01556883     1.10700
C304        C  0.50256837  0.25451963  0.00943621     0.99000
C305        C  0.76453656  0.19916245  0.02293682     0.99000
N306        N  0.69789446  0.18442166  0.22023067    -0.06300
N307        N  0.73331352  0.20077121  0.25647244    -0.61600
N308        N  0.56623311  0.20185995  0.18621295    -0.05600
N309        N  0.51530344  0.21784442  0.18676086    -0.58400
N310        N  0.57376429  0.16475397  0.22362216    -0.06900
N311        N  0.52849311  0.15573051  0.25100461    -0.61200
N312        N  0.69125111  0.22164719  0.18307896    -0.05900
N313        N  0.72213686  0.26343668  0.19261736    -0.58400
Mn314      Mn  0.64329215  0.11261516  0.21893968     1.20200
Mn315      Mn  0.62613408  0.21675787  0.12264523     1.10100
Cl316      Cl  0.63004083  0.11637565  0.11723035    -0.86400
C317        C  0.74853571  0.25057984  0.23854185     0.96000
C318        C  0.49239560  0.18947502  0.22781003     0.95800
C319        C  0.58224076  0.58274890  0.15281677     0.86100
C320        C  0.62076340  0.62327516  0.17862951    -0.54200
C321        C  0.65036411  0.65412653  0.14262273     0.09000
C322        C  0.63758569  0.64126331  0.08308371     0.20000
C323        C  0.54623396  0.61720302  0.11551140    -0.54900
C324        C  0.57437644  0.64796736  0.07844275     0.09100
C325        C  0.61910870  0.54998495  0.11452736    -0.54400
C326        C  0.64846126  0.57982881  0.07782395     0.09700
H327        H  0.62572493  0.62570987  0.22182257     0.14200
H328        H  0.66108447  0.66584915  0.05331819    -0.00100
H329        H  0.50209572  0.61776046  0.11879966     0.14500
H330        H  0.62273591  0.50655284  0.11741144     0.14300
C331        C  0.13765045  0.65673402  0.63489829     0.86100
C332        C  0.10239801  0.62024083  0.67157566    -0.54200
C333        C  0.07184180  0.58315671  0.64632881     0.09000
C334        C  0.07895200  0.58708907  0.58322998     0.20000
C335        C  0.17139983  0.61709537  0.59977081    -0.54900
C336        C  0.14185936  0.58008813  0.57241445     0.09100
C337        C  0.09672883  0.68243640  0.59516552    -0.54400
C338        C  0.06588476  0.64722573  0.56656665     0.09700
H339        H  0.10182008  0.62214520  0.71503856     0.14200
H340        H  0.05453227  0.55748123  0.56169934    -0.00100
H341        H  0.21536588  0.61933694  0.59665492     0.14500
H342        H  0.09365757  0.72562956  0.59030760     0.14300
N343        N  0.27755819  0.30439076  0.42818059    -0.06500
N344        N  0.24925529  0.26079761  0.43504292    -0.58600
N345        N  0.30952679  0.42827120  0.46592415    -0.06200
N346        N  0.29982973  0.46311385  0.50494794    -0.60800
N347        N  0.26750666  0.42679266  0.43418768    -0.05800
N348        N  0.22836538  0.46042880  0.45150274    -0.58600
N349        N  0.31897600  0.30458728  0.46065628    -0.05500
N350        N  0.32022249  0.26055769  0.48984496    -0.61100
C351        C  0.27617026  0.23421543  0.47388143     0.95700
C352        C  0.24909756  0.48328819  0.49584960     0.95400
N353        N  0.47362251  0.42565458  0.40325166    -0.06700
N354        N  0.50742129  0.46592340  0.40259026    -0.59200
N355        N  0.44543348  0.30626417  0.45920442    -0.04800
N356        N  0.46239347  0.27387927  0.49875652    -0.60500
N357        N  0.47976091  0.30411029  0.41811364    -0.06700
N358        N  0.52091287  0.27098177  0.42892877    -0.59500
N359        N  0.43763315  0.42978070  0.44298852    -0.04500
N360        N  0.44537301  0.47369936  0.46967611    -0.60600
Mn361      Mn  0.37782905  0.36768683  0.45941839     1.18400
C362        C  0.48842853  0.49586730  0.44360418     0.97700
C363        C  0.50956634  0.25163175  0.47915124     0.98400
N364        N  0.26852656  0.42625232  0.30787040    -0.06800
N365        N  0.24977245  0.47506383  0.31422248    -0.63100
N366        N  0.29240168  0.30289871  0.26417092    -0.05600
N367        N  0.27561447  0.26918583  0.22755181    -0.63700
N368        N  0.25803215  0.30464540  0.30529800    -0.06300
N369        N  0.21720003  0.27177974  0.29761494    -0.63300
N370        N  0.30341964  0.42411793  0.26687776    -0.05200
N371        N  0.30919088  0.47152137  0.24442978    -0.64000
Mn372      Mn  0.26539919  0.36551818  0.36903652     1.10700
C373        C  0.27607783  0.50224430  0.27492007     0.99000
C374        C  0.22868438  0.24975106  0.24904928     0.99000
N375        N  0.45617899  0.29352271  0.29709230    -0.06300
N376        N  0.48024510  0.24651451  0.29915639    -0.61600
N377        N  0.42796326  0.41607467  0.24563483    -0.05600
N378        N  0.43661094  0.45043294  0.20524007    -0.58400
N379        N  0.46821086  0.41716831  0.27936610    -0.06900
N380        N  0.50482529  0.45285582  0.26289515    -0.61200
N381        N  0.41743904  0.29375899  0.26160685    -0.05900
N382        N  0.41561388  0.24737616  0.23755473    -0.58400
Mn383      Mn  0.47152442  0.36001167  0.34870682     1.20200
Mn384      Mn  0.36022778  0.35909729  0.25698152     1.10100
Cl385      Cl  0.36869220  0.36352426  0.35869879    -0.86400
C386        C  0.45574627  0.21852057  0.26091897     0.96000
C387        C  0.48438862  0.47369062  0.21662168     0.95800
N388        N  0.52373525  0.67181557  0.68100710    -0.06500
N389        N  0.49368908  0.66890411  0.72483285    -0.58600
N390        N  0.55879882  0.73071556  0.56386184    -0.06200
N391        N  0.54864185  0.77353036  0.53357469    -0.60800
N392        N  0.52106806  0.69458329  0.55838568    -0.05800
N393        N  0.48444378  0.71235484  0.52341455    -0.58600
N394        N  0.55926443  0.71014233  0.68453369    -0.05500
N395        N  0.55385440  0.73481961  0.73028310    -0.61100
C396        C  0.51224507  0.70918780  0.75443539     0.95700
C397        C  0.50263033  0.76171224  0.50796673     0.95400
N398        N  0.72439499  0.69015251  0.56595891    -0.06700
N399        N  0.75431152  0.69471120  0.52228896    -0.59200
N400        N  0.68097057  0.72082782  0.68820069    -0.04800
N401        N  0.68724406  0.75752468  0.72506565    -0.60500
N402        N  0.72225449  0.68691373  0.68704731    -0.06700
N403        N  0.75846264  0.70080387  0.72307731    -0.59500
N404        N  0.68510516  0.72650776  0.56720411    -0.04500
N405        N  0.68702316  0.75726878  0.52429046    -0.60600
Mn406      Mn  0.62068555  0.72370033  0.62571881     1.18400
C407        C  0.73005214  0.73634235  0.49757457     0.97700
C408        C  0.73547731  0.74479641  0.74684397     0.98400
N409        N  0.53069065  0.57073510  0.54403212    -0.06800
N410        N  0.49931072  0.56892605  0.50225027    -0.63100
N411        N  0.55659635  0.51354340  0.66394031    -0.05600
N412        N  0.54793434  0.47355895  0.69865885    -0.63700
N413        N  0.51661062  0.54888181  0.66690997    -0.06300
N414        N  0.47950822  0.53314824  0.70379530    -0.63300
N415        N  0.57037410  0.53492591  0.54058475    -0.05200
N416        N  0.56685117  0.50801556  0.49591395    -0.64000
Mn417      Mn  0.52041041  0.62160553  0.61241149     1.10700
C418        C  0.52248623  0.52992260  0.47244477     0.99000
C419        C  0.49968481  0.48560478  0.72344684     0.99000
N420        N  0.71742136  0.56312169  0.67828840    -0.06300
N421        N  0.74131939  0.55899289  0.72457673    -0.61600
N422        N  0.69928023  0.52721024  0.55100040    -0.05600
N423        N  0.71739884  0.49068230  0.51613621    -0.58400
N424        N  0.73574400  0.56472229  0.55659846    -0.06900
N425        N  0.77884973  0.55462350  0.52509001    -0.61200
N426        N  0.68006677  0.52652566  0.67373791    -0.05900
N427        N  0.67688538  0.49731456  0.71765388    -0.58400
Mn428      Mn  0.72736370  0.62590328  0.62185519     1.20200
Mn429      Mn  0.62680497  0.52320967  0.60646442     1.10100
Cl430      Cl  0.62391308  0.62351158  0.61580094    -0.86400
C431        C  0.71583906  0.51751238  0.74828523     0.96000
C432        C  0.76718521  0.50839006  0.49982653     0.95800
C433        C  0.57420856  0.14717738  0.58350164     0.86100
C434        C  0.54409070  0.10670230  0.62046942    -0.54200
C435        C  0.57671768  0.07255081  0.64938185     0.09000
C436        C  0.63880413  0.08323535  0.63840805     0.20000
C437        C  0.61271284  0.17674361  0.62120910    -0.54900
C438        C  0.64715227  0.14396902  0.65026517     0.09100
C439        C  0.61218900  0.11177959  0.54805523    -0.54400
C440        C  0.64682734  0.07831882  0.57605623     0.09700
H441        H  0.49998182  0.10568520  0.62404257     0.14200
H442        H  0.66613084  0.05610332  0.66165857    -0.00100
H443        H  0.61354462  0.22019031  0.62326143     0.14500
H444        H  0.61259111  0.11435995  0.50440859     0.14300
C445        C  0.09197787  0.08800064  0.13808445     0.86100
C446        C  0.13307273  0.06004489  0.09986356    -0.54200
C447        C  0.16655576  0.09359665  0.07063329     0.09000
C448        C  0.15431777  0.15369134  0.08212288     0.20000
C449        C  0.12685222  0.12382405  0.17265116    -0.54900
C450        C  0.15934815  0.15885987  0.14414021     0.09100
C451        C  0.06025709  0.12761713  0.10115268    -0.54400
C452        C  0.09264238  0.16255279  0.07135328     0.09700
H453        H  0.13479059  0.01673981  0.09620830     0.14200
H454        H  0.18104607  0.18147516  0.05869592    -0.00100
H455        H  0.12621938  0.12039713  0.21621506     0.14500
H456        H  0.01627619  0.12712517  0.09861958     0.14300
C457        C  0.19703353  0.19728028  0.17014353    -0.16800
C458        C  0.19211648  0.21157334  0.22250837    -0.32000
H459        H  0.22879167  0.21517011  0.14498634     0.12200
H460        H  0.15862683  0.19648399  0.24719008     0.12800
C461        C  0.53426364  0.18436057  0.55256778    -0.16800
C462        C  0.54858314  0.21619621  0.50998524    -0.32000
H463        H  0.49155055  0.18378479  0.56476261     0.12200
H464        H  0.59059979  0.21494651  0.49557866     0.12800
C465        C  0.16729413  0.53805033  0.53464679    -0.16800
C466        C  0.22158211  0.52481362  0.53185890    -0.32000
H467        H  0.13991919  0.51671202  0.50916678     0.12200
H468        H  0.24850885  0.54395166  0.55937353     0.12800
C469        C  0.55112980  0.54708058  0.19371372    -0.16800
C470        C  0.51280185  0.51206381  0.17896205    -0.32000
H471        H  0.56108463  0.54934538  0.23597732     0.12200
H472        H  0.50122947  0.51164743  0.13704911     0.12800
C473        C  0.80619216  0.29030126  0.31507793    -0.16800
C474        C  0.78900946  0.28856219  0.26298730    -0.32000
H475        H  0.78966485  0.26142074  0.34396511     0.12200
H476        H  0.80297979  0.31980309  0.23539898     0.12800
C477        C  0.98874574  0.47357071  0.30773884    -0.16800
C478        C  0.95073514  0.43758957  0.29319165    -0.32000
H479        H  0.99828193  0.47632577  0.35003411     0.12200
H480        H  0.94269092  0.43438698  0.25057449     0.12800
C481        C  0.99245471  0.29727629  0.46763692    -0.16800
C482        C  0.94091162  0.29519866  0.44803415    -0.32000
H483        H  0.01835858  0.32975254  0.45381844     0.12200
H484        H  0.91380106  0.26479703  0.46446154     0.12800
C485        C  0.80623095  0.48137032  0.46065598    -0.18400
C486        C  0.80396880  0.42970483  0.44340575    -0.32000
H487        H  0.84030356  0.50564276  0.44723116     0.12200
H488        H  0.77197136  0.40416328  0.45956223     0.12800
C489        C  0.30136254  0.83821023  0.29085164    -0.16800
C490        C  0.26792336  0.79535451  0.29522181    -0.32000
H491        H  0.30159854  0.86255341  0.25423561     0.12200
H492        H  0.26483098  0.77478053  0.33401609     0.12800
C493        C  0.45030707  0.95140204  0.30619500    -0.16800
C494        C  0.50070099  0.94185497  0.28397400    -0.32000
H495        H  0.43001142  0.98934420  0.29707188     0.12200
H496        H  0.51892636  0.90221469  0.28893098     0.12800
C497        C  0.30596124  0.95360845  0.43947819    -0.16800
C498        C  0.31179165  0.97025227  0.49099878    -0.32000
H499        H  0.27081465  0.96742566  0.41716316     0.12200
H500        H  0.34943020  0.96028092  0.51116433     0.12800
C501        C  0.43432239  0.79169041  0.43892593    -0.16800
C502        C  0.47386451  0.80235045  0.47372340    -0.32000
H503        H  0.42205431  0.75036716  0.43425173     0.12200
H504        H  0.48702986  0.84358778  0.47669532     0.12800
C505        C  0.28825692  0.32116697  0.81220950    -0.16800
C506        C  0.28528449  0.26755549  0.80128385    -0.32000
H507        H  0.25991677  0.34878296  0.79297179     0.12200
H508        H  0.31526986  0.24063273  0.81855368     0.12800
C509        C  0.30655332  0.46097798  0.94091894    -0.16800
C510        C  0.31320146  0.48419590  0.99008057    -0.32000
H511        H  0.27276657  0.47525850  0.91692612     0.12200
H512        H  0.34842509  0.47243670  0.01325546     0.12800
C513        C  0.45141376  0.30187605  0.93327717    -0.16800
C514        C  0.46200210  0.29477548  0.98633931    -0.32000
H515        H  0.47270028  0.27535030  0.90534885     0.12200
H516        H  0.44264051  0.32176108  0.01490627     0.12800
C517        C  0.42468744  0.45057163  0.78978690    -0.16800
C518        C  0.47639705  0.45033879  0.76832141    -0.32000
H519        H  0.39520935  0.47900421  0.77356834     0.12200
H520        H  0.50489922  0.42022065  0.78286903     0.12800
C521        C  0.18247531  0.70148285  0.71816717    -0.16800
C522        C  0.17399288  0.69876162  0.66377737    -0.32000
H523        H  0.16320081  0.67226153  0.74452107     0.12200
H524        H  0.19611702  0.72663604  0.63771817     0.12800
C525        C  0.23372608  0.02394724  0.03859446    -0.16800
C526        C  0.21055812  0.07329039  0.03208478    -0.32000
H527        H  0.22200273  0.00041685  0.07396635     0.12200
H528        H  0.22425309  0.09922769  0.99916164     0.12800
C529        C  0.54579679  0.68631185  0.04021364    -0.16800
C530        C  0.49927912  0.67391924  0.01463701    -0.32000
H531        H  0.56312580  0.72574241  0.03372640     0.12200
H532        H  0.48476849  0.63303005  0.01770353     0.12800
C533        C  0.50839654  0.00182709  0.67914095    -0.16800
C534        C  0.55268685  0.03225611  0.68962252    -0.32000
H535        H  0.49355445  0.00219229  0.63830724     0.12200
H536        H  0.57074116  0.02908763  0.72902137     0.12800
C537        C  0.69180795  0.16477273  0.68600099    -0.16800
C538        C  0.68777183  0.21098455  0.71467827    -0.32000
H539        H  0.72846295  0.14026492  0.68974599     0.12200
H540        H  0.64913499  0.23269409  0.71459651     0.12800
C541        C  0.02026505  0.22564505  0.03395346    -0.16800
C542        C  0.07179252  0.20525118  0.03199821    -0.32000
H543        H  0.99323374  0.21118561  0.06591475     0.12200
H544        H  0.10047918  0.22190008  0.00262938     0.12800
C545        C  0.68010096  0.50714168  0.01558867    -0.16800
C546        C  0.68939080  0.55447676  0.03962131    -0.32000
H547        H  0.63992452  0.48984078  0.02002980     0.12200
H548        H  0.72753889  0.57480085  0.03165411     0.12800
C549        C  0.99922620  0.51094945  0.67133456    -0.16800
C550        C  0.04298145  0.54134008  0.68212331    -0.32000
H551        H  0.98128939  0.51454526  0.63190814     0.12200
H552        H  0.05802041  0.53756973  0.72282837     0.12800
C553        C  0.69514661  0.69153162  0.15934414    -0.16800
C554        C  0.68977292  0.72617369  0.20100268    -0.32000
H555        H  0.73295872  0.69103992  0.13593022     0.12200
H556        H  0.65004561  0.72977305  0.22075331     0.12800
C557        C  0.05864408  0.04701246  0.17191953    -0.16800
C558        C  0.02225096  0.06057312  0.21122216    -0.32000
H559        H  0.06708305  0.00458653  0.16594920     0.12200
H560        H  0.01248363  0.10280620  0.21660900     0.12800
C561        C  0.02536222  0.71590631  0.49911097    -0.16800
C562        C  0.02607565  0.66518039  0.52182745    -0.32000
H563        H  0.05510256  0.74338693  0.51371752     0.12200
H564        H  0.99893785  0.63550339  0.50630604     0.12800
C565        C  0.68476750  0.02155225  0.49947720    -0.16800
C566        C  0.69044252  0.04348245  0.54888061    -0.32000
H567        H  0.64565990  0.02604631  0.48036193     0.12200
H568        H  0.72745465  0.03501569  0.57065237     0.12800
C569        C  0.76984450  0.96337417  0.92841056    -0.16800
C570        C  0.81467412  0.93194206  0.93799026    -0.32000
H571        H  0.75417950  0.96464550  0.88790389     0.12200
H572        H  0.83367424  0.93410137  0.97687543     0.12800
C573        C  0.95509261  0.92870477  0.80202496    -0.16800
C574        C  0.94409301  0.95812354  0.75698325    -0.32000
H575        H  0.99468263  0.93142100  0.82019615     0.12200
H576        H  0.90271445  0.95874117  0.74251874     0.12800
C577        C  0.81455224  0.78473561  0.79156079    -0.16800
C578        C  0.76048768  0.77970006  0.78719906    -0.32000
H579        H  0.84088025  0.75970747  0.76633659     0.12200
H580        H  0.73296392  0.80519328  0.81028135     0.12800
C581        C  0.95182266  0.79577436  0.93671537    -0.16800
C582        C  0.94332480  0.74707319  0.96063657    -0.32000
H583        H  0.98913673  0.81687070  0.94418535     0.12200
H584        H  0.90370059  0.72893144  0.95728912     0.12800
loop_ 
_geom_bond_atom_site_label_1 
_geom_bond_atom_site_label_2 
_geom_bond_distance 
_geom_bond_site_symmetry_2 
_ccdc_geom_bond_type 
C1            C2   1.530       .  S
C1            C7   1.534       .  S
C1            C5   1.552       .  S
C1          C577   1.532       .  S
C2            H9   1.086       .  S
C2            C3   1.364       .  D
C3            C4   1.561       .  S
C3          C581   1.511       .  S
C4            C8   1.561       .  S
C4            C6   1.568       .  S
C4           H10   1.110       .  S
C5           H11   1.083       .  S
C5            C6   1.376       .  D
C6          C570   1.522       .  S
C7           H12   1.087       .  S
C7            C8   1.367       .  D
C8          C573   1.508       .  S
N13          N14   1.327       .  A
N13          N19   1.314       .  A
N13         Mn42   2.249       .  S
N14          C21   1.358       .  A
N15          N17   1.312       .  A
N15          N16   1.307   1_565  A
N15         Mn31   2.082       .  S
N16          C22   1.333   1_545  A
N17          N18   1.310       .  A
N17         Mn42   2.161       .  S
N18          C22   1.356       .  A
N19          N20   1.333   1_565  A
N19         Mn31   2.229       .  S
N20          C21   1.361   1_545  A
C21         C565   1.511   1_565  S
C22         C294   1.408   1_565  S
N23          N29   1.309       .  A
N23          N24   1.332   1_655  A
N23         Mn53   2.228       .  S
N24          C32   1.363   1_465  A
N25          N26   1.301       .  A
N25          N27   1.320       .  A
N25         Mn31   2.113       .  S
N26          C33   1.335       .  A
N27          N28   1.306   1_655  A
N27         Mn53   2.127       .  S
N28          C33   1.333   1_455  A
N29          N30   1.324   1_565  A
N29         Mn31   2.222       .  S
N30          C32   1.353       .  A
Mn31        Cl55   2.538       .  S
C32         C558   1.505   1_655  S
C33         C203   1.385   1_665  S
N34          N35   1.328       .  A
N34          N40   1.317       .  A
N34         Mn42   2.231       .  S
N35          C43   1.357       .  A
N36          N38   1.319       .  A
N36          N37   1.302       .  A
N36         Mn54   2.132       .  S
N37          C44   1.341       .  A
N38          N39   1.302       .  A
N38         Mn42   2.128       .  S
N39          C44   1.338       .  A
N40          N41   1.334       .  A
N40         Mn54   2.251       .  S
N41          C43   1.361       .  A
Mn42        Cl55   2.516       .  S
C43         C554   1.515       .  S
C44         C407   1.381       .  S
N45          N46   1.322   1_655  A
N45          N51   1.315       .  A
N45         Mn53   2.215       .  S
N46          C56   1.352   1_455  A
N47          N48   1.305       .  A
N47          N49   1.308       .  A
N47         Mn54   2.143       .  S
N48          C57   1.349       .  A
N49          N50   1.310       .  A
N49         Mn53   2.114       .  S
N50          C57   1.347       .  A
N51          N52   1.347       .  A
N51         Mn54   2.316       .  S
N52          C56   1.376       .  A
Mn53        Cl55   2.521       .  S
Mn54        Cl55   2.543       .  S
C56         C561   1.536   1_655  S
C57         C237   1.413   1_655  S
N58          N59   1.308       .  A
N58          N64   1.322       .  A
N58         Mn87   2.135       .  S
N59          C66   1.335       .  A
N60          N62   1.310       .  A
N60          N61   1.321   1_556  A
N60         Mn76   2.195       .  S
N61          C67   1.350   1_554  A
N62          N63   1.338   1_655  A
N62         Mn87   2.266       .  S
N63          C67   1.368   1_455  A
N64          N65   1.304       .  A
N64         Mn76   2.142       .  S
N65          C66   1.335       .  A
C66         C248   1.402   1_656  S
C67         C541   1.511   1_656  S
N68          N74   1.310       .  A
N68          N69   1.300       .  A
N68         Mn98   2.126       .  S
N69          C77   1.349       .  A
N70          N71   1.329       .  A
N70          N72   1.312       .  A
N70         Mn76   2.205       .  S
N71          C78   1.357       .  A
N72          N73   1.325       .  A
N72         Mn98   2.235       .  S
N73          C78   1.356       .  A
N74          N75   1.311   1_556  A
N74         Mn76   2.120       .  S
N75          C77   1.343   1_554  A
Mn76       Cl100   2.526       .  S
C77         C305   1.403   1_556  S
C78         C545   1.496   1_556  S
N79          N80   1.305       .  A
N79          N85   1.313       .  A
N79         Mn87   2.101       .  S
N80          C88   1.337       .  A
N81          N83   1.316       .  A
N81          N82   1.331       .  A
N81         Mn99   2.252       .  S
N82          C89   1.360       .  A
N83          N84   1.333       .  A
N83         Mn87   2.251       .  S
N84          C89   1.363       .  A
N85          N86   1.309       .  A
N85         Mn99   2.167       .  S
N86          C88   1.354       .  A
Mn87       Cl100   2.535       .  S
C88         C227   1.404   1_655  S
C89         C549   1.527       .  S
N90          N91   1.305       .  A
N90          N96   1.317       .  A
N90         Mn98   2.093       .  S
N91         C101   1.333       .  A
N92          N93   1.335       .  A
N92          N94   1.314       .  A
N92         Mn99   2.250       .  S
N93         C102   1.362       .  A
N94          N95   1.329       .  A
N94         Mn98   2.230       .  S
N95         C102   1.358       .  A
N96          N97   1.306       .  A
N96         Mn99   2.172       .  S
N97         C101   1.350       .  A
Mn98       Cl100   2.529       .  S
Mn99       Cl100   2.528       .  S
C101        C431   1.384       .  S
C102        C538   1.519       .  S
N103        N104   1.330       .  A
N103        N109   1.310       .  A
N103       Mn132   2.260       .  S
N104        C111   1.362       .  A
N105        N107   1.312       .  A
N105        N106   1.310       .  A
N105       Mn121   2.126       .  S
N106        C112   1.344       .  A
N107        N108   1.307       .  A
N107       Mn132   2.146       .  S
N108        C112   1.354       .  A
N109        N110   1.327       .  A
N109       Mn121   2.188       .  S
N110        C111   1.353       .  A
C111        C530   1.505   1_556  S
C112        C272   1.419   1_556  S
N113        N119   1.307       .  A
N113        N114   1.335   1_565  A
N113       Mn143   2.236       .  S
N114        C122   1.364   1_546  A
N115        N116   1.304       .  A
N115        N117   1.313       .  A
N115       Mn121   2.131       .  S
N116        C123   1.342       .  A
N117        N118   1.301       .  A
N117       Mn143   2.122       .  S
N118        C123   1.339       .  A
N119        N120   1.318   1_556  A
N119       Mn121   2.182       .  S
N120        C122   1.349       .  A
Mn121      Cl145   2.527       .  S
C122        C525   1.497   1_565  S
C123        C283   1.394       .  S
N124        N125   1.327       .  A
N124        N130   1.315       .  A
N124       Mn132   2.236       .  S
N125        C133   1.358       .  A
N126        N128   1.320       .  A
N126        N127   1.307       .  A
N126       Mn144   2.180       .  S
N127        C134   1.350       .  A
N128        N129   1.305       .  A
N128       Mn132   2.104       .  S
N129        C134   1.332       .  A
N130        N131   1.338       .  A
N130       Mn144   2.258       .  S
N131        C133   1.363       .  A
Mn132      Cl145   2.535       .  S
C133        C521   1.527       .  S
C134        C396   1.388       .  S
N135        N136   1.329       .  A
N135        N141   1.313       .  A
N135       Mn143   2.203       .  S
N136        C146   1.354       .  A
N137        N138   1.310       .  A
N137        N139   1.316       .  A
N137       Mn144   2.179       .  S
N138        C147   1.355       .  A
N139        N140   1.308       .  A
N139       Mn143   2.108       .  S
N140        C147   1.339       .  A
N141        N142   1.332       .  A
N141       Mn144   2.272       .  S
N142        C146   1.365       .  A
Mn143      Cl145   2.534       .  S
Mn144      Cl145   2.535       .  S
C146        C533   1.515   1_565  S
C147        C192   1.411   1_565  S
C148        C149   1.545       .  S
C148        C154   1.535       .  S
C148        C152   1.558       .  S
C148        C513   1.561       .  S
C149        H156   1.083       .  S
C149        C150   1.377       .  D
C150        C151   1.565       .  S
C150        C517   1.534       .  S
C151        C155   1.570       .  S
C151        C153   1.572       .  S
C151        H157   1.110       .  S
C152        H158   1.083       .  S
C152        C153   1.382       .  D
C153        C509   1.537       .  S
C154        H159   1.082       .  S
C154        C155   1.371       .  D
C155        C505   1.537       .  S
C160        C161   1.536       .  S
C160        C166   1.543       .  S
C160        C164   1.538       .  S
C160        C501   1.534       .  S
C161        H168   1.086       .  S
C161        C162   1.369       .  D
C162        C163   1.568       .  S
C162        C497   1.519       .  S
C163        C167   1.566       .  S
C163        C165   1.562       .  S
C163        H169   1.110       .  S
C164        H170   1.086       .  S
C164        C165   1.370       .  D
C165        C489   1.516       .  S
C166        H171   1.085       .  S
C166        C167   1.373       .  D
C167        C493   1.522       .  S
C172        C173   1.539       .  S
C172        C178   1.552       .  S
C172        C176   1.546       .  S
C172        C478   1.554       .  S
C173        H180   1.085       .  S
C173        C174   1.373       .  D
C174        C175   1.568       .  S
C174        C486   1.525       .  S
C175        C179   1.568       .  S
C175        C177   1.569       .  S
C175        H181   1.110       .  S
C176        H182   1.085       .  S
C176        C177   1.378       .  D
C177        C482   1.531       .  S
C178        H183   1.084       .  S
C178        C179   1.375       .  D
C179        C473   1.541       .  S
N184        N185   1.306       .  A
N184        N190   1.309       .  A
N184       Mn213   2.151       .  S
N185        C192   1.353       .  A
N186        N188   1.311       .  A
N186        N187   1.330   1_545  A
N186       Mn202   2.218       .  S
N187        C193   1.359   1_565  A
N188        N189   1.328       .  A
N188       Mn213   2.242       .  S
N189        C193   1.359       .  A
N190        N191   1.308   1_545  A
N190       Mn202   2.108       .  S
N191        C192   1.342   1_565  A
C193        C498   1.505   1_545  S
N194        N200   1.314       .  A
N194        N195   1.299       .  A
N194       Mn224   2.117       .  S
N195        C203   1.338       .  A
N196        N197   1.329   1_545  A
N196        N198   1.309       .  A
N196       Mn202   2.211       .  S
N197        C204   1.357   1_455  A
N198        N199   1.325   1_455  A
N198       Mn224   2.224       .  S
N199        C204   1.357   1_545  A
N200        N201   1.304   1_545  A
N200       Mn202   2.119       .  S
N201        C203   1.338   1_565  A
Mn202      Cl226   2.536       .  S
C204        C574   1.496       .  S
N205        N206   1.308       .  A
N205        N211   1.318       .  A
N205       Mn213   2.122       .  S
N206        C214   1.337       .  A
N207        N209   1.314       .  A
N207        N208   1.338       .  A
N207       Mn225   2.256       .  S
N208        C215   1.363       .  A
N209        N210   1.323       .  A
N209       Mn213   2.218       .  S
N210        C215   1.355       .  A
N211        N212   1.305       .  A
N211       Mn225   2.163       .  S
N212        C214   1.347       .  A
Mn213      Cl226   2.526       .  S
C214        C351   1.394       .  S
C215        C506   1.515       .  S
N216        N217   1.306   1_455  A
N216        N222   1.314       .  A
N216       Mn224   2.098       .  S
N217        C227   1.337   1_655  A
N218        N219   1.330       .  A
N218        N220   1.314       .  A
N218       Mn225   2.266       .  S
N219        C228   1.362       .  A
N220        N221   1.333   1_455  A
N220       Mn224   2.218       .  S
N221        C228   1.358   1_655  A
N222        N223   1.307       .  A
N222       Mn225   2.173       .  S
N223        C227   1.354       .  A
Mn224      Cl226   2.532       .  S
Mn225      Cl226   2.530       .  S
C228        C481   1.520   1_455  S
N229        N230   1.310       .  A
N229        N235   1.312       .  A
N229       Mn258   2.151       .  S
N230        C237   1.351       .  A
N231        N233   1.314       .  A
N231        N232   1.329       .  A
N231       Mn247   2.211       .  S
N232        C238   1.356       .  A
N233        N234   1.331       .  A
N233       Mn258   2.266       .  S
N234        C238   1.363       .  A
N235        N236   1.310   1_455  A
N235       Mn247   2.108       .  S
N236        C237   1.339   1_655  A
C238        C477   1.516   1_455  S
N239        N245   1.321       .  A
N239        N240   1.308   1_554  A
N239       Mn269   2.140       .  S
N240        C248   1.336   1_556  A
N241        N242   1.325   1_455  A
N241        N243   1.307       .  A
N241       Mn247   2.216       .  S
N242        C249   1.355   1_554  A
N243        N244   1.330   1_554  A
N243       Mn269   2.216       .  S
N244        C249   1.359   1_455  A
N245        N246   1.304       .  A
N245       Mn247   2.136       .  S
N246        C248   1.336       .  A
Mn247      Cl271   2.530       .  S
C249        C582   1.496       .  S
N250        N251   1.303       .  A
N250        N256   1.318       .  A
N250       Mn258   2.139       .  S
N251        C259   1.341       .  A
N252        N254   1.316       .  A
N252        N253   1.333       .  A
N252       Mn270   2.245       .  S
N253        C260   1.360       .  A
N254        N255   1.325       .  A
N254       Mn258   2.221       .  S
N255        C260   1.354       .  A
N256        N257   1.306       .  A
N256       Mn270   2.147       .  S
N257        C259   1.345       .  A
Mn258      Cl271   2.525       .  S
C259        C373   1.394       .  S
C260        C490   1.504       .  S
N261        N262   1.310       .  A
N261        N267   1.309       .  A
N261       Mn269   2.107       .  S
N262        C272   1.344       .  A
N263        N264   1.335       .  A
N263        N265   1.316       .  A
N263       Mn270   2.297       .  S
N264        C273   1.369       .  A
N265        N266   1.330   1_554  A
N265       Mn269   2.213       .  S
N266        C273   1.355   1_556  A
N267        N268   1.309       .  A
N267       Mn270   2.153       .  S
N268        C272   1.353       .  A
Mn269      Cl271   2.530       .  S
Mn270      Cl271   2.536       .  S
C273        C510   1.529   1_554  S
N274        N275   1.330   1_554  A
N274        N280   1.310       .  A
N274       Mn303   2.253       .  S
N275        C282   1.362   1_545  A
N276        N278   1.325       .  A
N276        N277   1.306   1_545  A
N276       Mn292   2.131       .  S
N277        C283   1.333   1_554  A
N278        N279   1.306   1_554  A
N278       Mn303   2.139       .  S
N279        C283   1.338   1_545  A
N280        N281   1.331   1_545  A
N280       Mn292   2.216       .  S
N281        C282   1.357   1_554  A
C282        C569   1.514       .  S
N284        N290   1.314       .  A
N284        N285   1.332       .  A
N284       Mn314   2.249       .  S
N285        C293   1.360   1_545  A
N286        N287   1.308       .  A
N286        N288   1.311       .  A
N286       Mn292   2.098       .  S
N287        C294   1.340       .  A
N288        N289   1.306       .  A
N288       Mn314   2.153       .  S
N289        C294   1.353       .  A
N290        N291   1.327   1_545  A
N290       Mn292   2.224       .  S
N291        C293   1.357       .  A
Mn292      Cl316   2.517       .  S
C293        C494   1.508       .  S
N295        N296   1.338   1_554  A
N295        N301   1.314       .  A
N295       Mn303   2.274       .  S
N296        C304   1.369   1_556  A
N297        N299   1.314       .  A
N297        N298   1.312       .  A
N297       Mn315   2.161       .  S
N298        C305   1.352       .  A
N299        N300   1.306   1_554  A
N299       Mn303   2.103       .  S
N300        C305   1.338   1_556  A
N301        N302   1.324       .  A
N301       Mn315   2.209       .  S
N302        C304   1.350       .  A
Mn303      Cl316   2.543       .  S
C304        C514   1.519   1_554  S
N306        N307   1.339       .  A
N306        N312   1.309       .  A
N306       Mn314   2.255       .  S
N307        C317   1.367       .  A
N308        N309   1.308       .  A
N308        N310   1.315       .  A
N308       Mn315   2.167       .  S
N309        C318   1.349       .  A
N310        N311   1.312       .  A
N310       Mn314   2.133       .  S
N311        C318   1.346       .  A
N312        N313   1.326       .  A
N312       Mn315   2.225       .  S
N313        C317   1.357       .  A
Mn314      Cl316   2.556       .  S
Mn315      Cl316   2.508       .  S
C317        C474   1.527       .  S
C318        C386   1.407       .  S
C319        C320   1.551       .  S
C319        C325   1.535       .  S
C319        C323   1.539       .  S
C319        C469   1.538       .  S
C320        H327   1.086       .  S
C320        C321   1.374       .  D
C321        C322   1.559       .  S
C321        C553   1.523       .  S
C322        C326   1.558       .  S
C322        C324   1.567       .  S
C322        H328   1.110       .  S
C323        H329   1.086       .  S
C323        C324   1.371       .  D
C324        C529   1.513       .  S
C325        H330   1.086       .  S
C325        C326   1.368       .  D
C326        C546   1.507       .  S
C331        C332   1.540       .  S
C331        C337   1.549       .  S
C331        C335   1.548       .  S
C331        C522   1.579       .  S
C332        H339   1.082       .  S
C332        C333   1.369       .  D
C333        C334   1.575       .  S
C333        C550   1.531       .  S
C334        C338   1.579       .  S
C334        C336   1.571       .  S
C334        H340   1.110       .  S
C335        H341   1.084       .  S
C335        C336   1.380       .  D
C336        C465   1.535       .  S
C337        H342   1.083       .  S
C337        C338   1.384       .  D
C338        C562   1.553       .  S
N343        N344   1.306       .  A
N343        N349   1.313       .  A
N343       Mn372   2.122       .  S
N344        C351   1.342       .  A
N345        N347   1.315       .  A
N345        N346   1.328       .  A
N345       Mn361   2.246       .  S
N346        C352   1.360       .  A
N347        N348   1.335       .  A
N347       Mn372   2.246       .  S
N348        C352   1.362       .  A
N349        N350   1.306       .  A
N349       Mn361   2.153       .  S
N350        C351   1.346       .  A
C352        C466   1.520       .  S
N353        N359   1.315       .  A
N353        N354   1.312       .  A
N353       Mn383   2.144       .  S
N354        C362   1.344       .  A
N355        N356   1.332       .  A
N355        N357   1.311       .  A
N355       Mn361   2.242       .  S
N356        C363   1.361       .  A
N357        N358   1.325       .  A
N357       Mn383   2.210       .  S
N358        C363   1.355       .  A
N359        N360   1.308       .  A
N359       Mn361   2.178       .  S
N360        C362   1.349       .  A
Mn361      Cl385   2.522       .  S
C362        C418   1.416       .  S
C363        C462   1.507       .  S
N364        N365   1.305       .  A
N364        N370   1.318       .  A
N364       Mn372   2.129       .  S
N365        C373   1.340       .  A
N366        N368   1.312       .  A
N366        N367   1.326       .  A
N366       Mn384   2.196       .  S
N367        C374   1.353       .  A
N368        N369   1.324       .  A
N368       Mn372   2.224       .  S
N369        C374   1.356       .  A
N370        N371   1.307       .  A
N370       Mn384   2.137       .  S
N371        C373   1.340       .  A
Mn372      Cl385   2.546       .  S
C374        C458   1.491       .  S
N375        N376   1.305       .  A
N375        N381   1.312       .  A
N375       Mn383   2.155       .  S
N376        C386   1.346       .  A
N377        N378   1.324       .  A
N377        N379   1.312       .  A
N377       Mn384   2.215       .  S
N378        C387   1.355       .  A
N379        N380   1.328       .  A
N379       Mn383   2.220       .  S
N380        C387   1.357       .  A
N381        N382   1.312       .  A
N381       Mn384   2.139       .  S
N382        C386   1.348       .  A
Mn383      Cl385   2.534       .  S
Mn384      Cl385   2.545       .  S
C387        C470   1.497       .  S
N388        N389   1.304       .  A
N388        N394   1.310       .  A
N388       Mn417   2.135       .  S
N389        C396   1.346       .  A
N390        N392   1.313       .  A
N390        N391   1.320       .  A
N390       Mn406   2.190       .  S
N391        C397   1.349       .  A
N392        N393   1.331       .  A
N392       Mn417   2.243       .  S
N393        C397   1.362       .  A
N394        N395   1.305       .  A
N394       Mn406   2.105       .  S
N395        C396   1.340       .  A
C397        C502   1.492       .  S
N398        N404   1.314       .  A
N398        N399   1.302       .  A
N398       Mn428   2.104       .  S
N399        C407   1.336       .  A
N400        N401   1.318       .  A
N400        N402   1.311       .  A
N400       Mn406   2.170       .  S
N401        C408   1.346       .  A
N402        N403   1.330       .  A
N402       Mn428   2.240       .  S
N403        C408   1.363       .  A
N404        N405   1.304       .  A
N404       Mn406   2.127       .  S
N405        C407   1.340       .  A
Mn406      Cl430   2.513       .  S
C408        C578   1.488       .  S
N409        N410   1.309       .  A
N409        N415   1.314       .  A
N409       Mn417   2.145       .  S
N410        C418   1.344       .  A
N411        N413   1.311       .  A
N411        N412   1.324       .  A
N411       Mn429   2.229       .  S
N412        C419   1.356       .  A
N413        N414   1.337       .  A
N413       Mn417   2.247       .  S
N414        C419   1.365       .  A
N415        N416   1.312       .  A
N415       Mn429   2.182       .  S
N416        C418   1.352       .  A
Mn417      Cl430   2.548       .  S
C419        C518   1.516       .  S
N420        N421   1.305       .  A
N420        N426   1.312       .  A
N420       Mn428   2.097       .  S
N421        C431   1.339       .  A
N422        N423   1.332       .  A
N422        N424   1.316       .  A
N422       Mn429   2.230       .  S
N423        C432   1.358       .  A
N424        N425   1.327       .  A
N424       Mn428   2.248       .  S
N425        C432   1.359       .  A
N426        N427   1.303       .  A
N426       Mn429   2.150       .  S
N427        C431   1.345       .  A
Mn428      Cl430   2.552       .  S
Mn429      Cl430   2.515       .  S
C432        C485   1.511       .  S
C433        C434   1.540       .  S
C433        C439   1.546       .  S
C433        C437   1.550       .  S
C433        C461   1.548       .  S
C434        H441   1.086       .  S
C434        C435   1.367       .  D
C435        C436   1.570       .  S
C435        C534   1.522       .  S
C436        C440   1.564       .  S
C436        C438   1.565       .  S
C436        H442   1.110       .  S
C437        H443   1.086       .  S
C437        C438   1.375       .  D
C438        C537   1.529       .  S
C439        H444   1.085       .  S
C439        C440   1.375       .  D
C440        C566   1.522       .  S
C445        C446   1.538       .  S
C445        C451   1.550       .  S
C445        C449   1.534       .  S
C445        C557   1.546       .  S
C446        H453   1.085       .  S
C446        C447   1.371       .  D
C447        C448   1.553       .  S
C447        C526   1.515       .  S
C448        C452   1.557       .  S
C448        C450   1.556       .  S
C448        H454   1.111       .  S
C449        H455   1.084       .  S
C449        C450   1.371       .  D
C450        C457   1.506       .  S
C451        H456   1.085       .  S
C451        C452   1.383       .  D
C452        C542   1.524       .  S
C457        H459   1.086       .  S
C457        C458   1.357       .  D
C458        H460   1.084       .  S
C461        H463   1.086       .  S
C461        C462   1.356       .  D
C462        H464   1.086       .  S
C465        H467   1.085       .  S
C465        C466   1.370       .  D
C466        H468   1.083       .  S
C469        H471   1.086       .  S
C469        C470   1.355       .  D
C470        H472   1.086       .  S
C473        H475   1.085       .  S
C473        C474   1.372       .  D
C474        H476   1.084       .  S
C477        H479   1.085       .  S
C477        C478   1.364       .  D
C478        H480   1.086       .  S
C481        H483   1.084   1_655  S
C481        C482   1.369       .  D
C482        H484   1.085       .  S
C485        H487   1.084       .  S
C485        C486   1.366       .  D
C486        H488   1.085       .  S
C489        H491   1.085       .  S
C489        C490   1.359       .  D
C490        H492   1.086       .  S
C493        H495   1.085       .  S
C493        C494   1.364       .  D
C494        H496   1.085       .  S
C497        H499   1.086       .  S
C497        C498   1.364       .  D
C498        H500   1.086       .  S
C501        H503   1.087       .  S
C501        C502   1.348       .  D
C502        H504   1.087       .  S
C505        H507   1.085       .  S
C505        C506   1.371       .  D
C506        H508   1.080       .  S
C509        H511   1.085       .  S
C509        C510   1.375       .  D
C510        H512   1.084   1_556  S
C513        H515   1.087       .  S
C513        C514   1.358       .  D
C514        H516   1.083   1_556  S
C517        H519   1.085       .  S
C517        C518   1.367       .  D
C518        H520   1.082       .  S
C521        H523   1.079       .  S
C521        C522   1.375       .  D
C522        H524   1.086       .  S
C525        H527   1.085       .  S
C525        C526   1.356       .  D
C526        H528   1.085   1_554  S
C529        H531   1.085       .  S
C529        C530   1.363       .  D
C530        H532   1.086       .  S
C533        H535   1.086       .  S
C533        C534   1.369       .  D
C534        H536   1.085       .  S
C537        H539   1.086       .  S
C537        C538   1.366       .  D
C538        H540   1.086       .  S
C541        H543   1.085   1_455  S
C541        C542   1.358       .  D
C542        H544   1.085       .  S
C545        H547   1.086       .  S
C545        C546   1.356       .  D
C546        H548   1.085       .  S
C549        H551   1.085       .  S
C549        C550   1.359   1_655  D
C550        H552   1.087       .  S
C553        H555   1.085       .  S
C553        C554   1.362       .  D
C554        H556   1.086       .  S
C557        H559   1.087       .  S
C557        C558   1.353       .  D
C558        H560   1.086       .  S
C561        H563   1.082       .  S
C561        C562   1.376       .  D
C562        H564   1.085   1_455  S
C565        H567   1.085       .  S
C565        C566   1.363       .  D
C566        H568   1.085       .  S
C569        H571   1.086       .  S
C569        C570   1.365       .  D
C570        H572   1.085       .  S
C573        H575   1.085       .  S
C573        C574   1.358       .  D
C574        H576   1.086       .  S
C577        H579   1.088       .  S
C577        C578   1.344       .  D
C578        H580   1.083       .  S
C581        H583   1.085       .  S
C581        C582   1.360       .  D
C582        H584   1.086       .  S
