geometry optimzed in LAMMPS
_audit_creation_date              2020-11-30 
_audit_creation_method            'lammps2cif' 
_symmetry_space_group_name_H-M    'P1' 
_symmetry_Int_Tables_number       1 
_symmetry_cell_setting            triclinic 
loop_ 
_symmetry_equiv_pos_as_xyz 
  x,y,z 
_cell_length_a                    41.84881405 
_cell_length_b                    40.597927244964765 
_cell_length_c                    39.6786656677834 
_cell_angle_alpha                 90.77223567601784 
_cell_angle_beta                  89.1741429850857 
_cell_angle_gamma                 116.51855981685166 
loop_ 
_atom_site_label 
_atom_site_type_symbol 
_atom_site_fract_x 
_atom_site_fract_y 
_atom_site_fract_z 
_atom_site_charge 
C1          C  0.99117524  0.98296621  0.72931012     0.45600
H2          H  0.99110427  0.98397118  0.70138865    -0.03400
C3          C  0.99266831  0.98079508  0.79501823     0.45600
H4          H  0.99354636  0.98004061  0.82295863    -0.03400
C5          C  0.02482716  0.98175070  0.74307319    -0.17100
C6          C  0.98965228  0.01629792  0.74683055    -0.16900
C7          C  0.95979591  0.94920702  0.74451699    -0.17300
C8          C  0.02604757  0.98158873  0.77764825    -0.17200
C9          C  0.99032222  0.01503747  0.78149710    -0.16800
C10         C  0.96072228  0.94764803  0.77913095    -0.17100
Zr11       Zr  0.70440896  0.32427981  0.05643979     2.17500
O12         O  0.71877049  0.31883156  0.11474730    -0.51200
O13         O  0.75297677  0.31791369  0.02806681    -0.74400
O14         O  0.69812260  0.26243414  0.06437301    -0.81200
O15         O  0.73862834  0.42769060  0.06624374    -0.82900
O16         O  0.65036410  0.22355568  0.03340642    -0.78600
O17         O  0.75263113  0.38113632  0.07883954    -0.90200
O18         O  0.74310475  0.31659798  0.97166698    -0.76200
O19         O  0.68110992  0.29062623  0.00575088    -0.85700
O20         O  0.71882364  0.36783202  0.01233415    -0.85300
O21         O  0.64119818  0.28863204  0.06582334    -0.72100
O22         O  0.67578573  0.36179857  0.07226438    -0.84200
Zr23       Zr  0.60333571  0.33727236  0.98589361     2.26400
Zr24       Zr  0.61848699  0.25639099  0.01371901     2.06300
Zr25       Zr  0.68942597  0.40457434  0.02744433     2.10000
Zr26       Zr  0.69514477  0.33369848  0.96194236     1.78800
O27         O  0.68375544  0.45050301  0.06378407    -0.93000
O28         O  0.68358891  0.28393547  0.92163128    -0.40800
O29         O  0.66636743  0.37128521  0.97642090    -0.77500
O30         O  0.63151443  0.29932256  0.96867375    -0.96200
O31         O  0.58991571  0.29331660  0.02941568    -0.89500
O32         O  0.62624433  0.37162651  0.03659478    -0.92300
C33         C  0.76008241  0.31356611  0.99724671     1.01400
C34         C  0.75828840  0.41506070  0.08012545     1.14400
C35         C  0.67794119  0.23085962  0.05139901     1.05200
O36         O  0.61740656  0.21528306  0.96802993    -0.94500
O37         O  0.56100586  0.23309915  0.98626388    -0.90200
O38         O  0.55515420  0.28143492  0.96400985    -0.83400
C39         C  0.54421024  0.24696159  0.96918904     1.11800
O40         O  0.63253866  0.33196798  0.13795036    -0.96400
Zr41       Zr  0.61265115  0.32689464  0.07984976     1.88900
O42         O  0.54877812  0.33018187  0.01477856    -0.73100
O43         O  0.57850259  0.20683731  0.05010174    -0.52400
O44         O  0.57752318  0.27569592  0.11684801    -0.97000
O45         O  0.60364320  0.37628189  0.10732645    -0.54200
O46         O  0.55047987  0.30860072  0.06694599    -0.73600
C47         C  0.53402648  0.31486322  0.04272205     0.98700
O48         O  0.58501517  0.34721428  0.93037816    -0.62400
O49         O  0.74051046  0.45016405  0.99651040    -0.57200
O50         O  0.61647777  0.39908892  0.96733752    -0.93900
O51         O  0.66905925  0.43832938  0.99143609    -0.92300
O52         O  0.74817052  0.38596224  0.94067938    -0.92700
O53         O  0.68791800  0.35212003  0.90551468    -0.91500
C54         C  0.64245193  0.43121963  0.97218747     1.17600
H55         H  0.74436116  0.38245292  0.01034072     0.33500
H56         H  0.62123169  0.28648747  0.94791448     0.44400
H57         H  0.61579877  0.38822154  0.04096565     0.37900
H58         H  0.63709651  0.27121884  0.08368887     0.34400
H59         H  0.70545839  0.29274682  0.90744860     0.26200
H60         H  0.55637609  0.20996722  0.05154511     0.32100
H61         H  0.57093531  0.25344416  0.10261690     0.38000
H62         H  0.75854509  0.37522423  0.92378586     0.32500
H63         H  0.74371040  0.47421792  0.00571688     0.31400
H64         H  0.70232145  0.47438184  0.05548314     0.33000
H65         H  0.59209201  0.36594835  0.12921084     0.32000
H66         H  0.66219498  0.34571597  0.90415599     0.36000
H67         H  0.58702839  0.32848916  0.91542639     0.28700
H68         H  0.73744559  0.31018331  0.11334224     0.33000
H69         H  0.65696992  0.35253619  0.13795296     0.35800
H70         H  0.76161146  0.44761713  0.00444802     0.28400
H71         H  0.55905821  0.33964418  0.93239684     0.41300
H72         H  0.60782639  0.19062836  0.97841225     0.31400
H73         H  0.68415270  0.26389900  0.93517940     0.39000
H74         H  0.58457778  0.37830168  0.09434052     0.30800
H75         H  0.57183547  0.18415315  0.03645966     0.30900
H76         H  0.69739159  0.29761890  0.12373978     0.31200
C77         C  0.73608531  0.72600568  0.83204629     0.80300
N78         N  0.73154582  0.69282755  0.84402507    -0.78000
C79         C  0.69815070  0.66500868  0.84882368     0.82800
N80         N  0.66975185  0.67107938  0.84153666    -0.77900
C81         C  0.67376563  0.70380053  0.82997239     0.82900
N82         N  0.70700694  0.73162462  0.82583343    -0.79600
Zr83       Zr  0.28120909  0.60638744  0.00091944     2.17500
O84         O  0.26601296  0.57883566  0.05668080    -0.51200
O85         O  0.22811689  0.56295913  0.97179662    -0.74400
O86         O  0.23794859  0.62240650  0.02921846    -0.81200
O87         O  0.32864162  0.54900428  0.97476412    -0.82900
O88         O  0.25750174  0.68417253  0.02353134    -0.78600
O89         O  0.28139554  0.54708539  0.00532466    -0.90200
O90         O  0.23559308  0.57705595  0.91620391    -0.76200
O91         O  0.27048732  0.64565392  0.96360906    -0.85700
O92         O  0.30058150  0.59612356  0.94678983    -0.85300
O93         O  0.31641121  0.66742398  0.02261411    -0.72100
O94         O  0.34331215  0.62139271  0.00692975    -0.84200
Zr95       Zr  0.38684956  0.71269024  0.93341658     2.26400
Zr96       Zr  0.30689053  0.70669938  0.98393607     2.06300
Zr97       Zr  0.36220761  0.61158387  0.95209905     2.10000
Zr98       Zr  0.28950911  0.63497519  0.90958957     1.78800
O99         O  0.40389950  0.59698909  0.98318948    -0.93000
O100        O  0.24028816  0.64816160  0.89397003    -0.40800
O101        O  0.35202842  0.65065899  0.91306530    -0.77500
O102        O  0.32446388  0.69679130  0.92858963    -0.96200
O103        O  0.36905051  0.72357366  0.98794882    -0.89500
O104        O  0.39694988  0.67322063  0.97127020    -0.92300
C105        C  0.21860576  0.55604212  0.94085440     1.01400
C106        C  0.30036980  0.53211742  0.99315814     1.14400
C107        C  0.23609463  0.65264873  0.03540783     1.05200
O108        O  0.25985497  0.72064311  0.96311704    -0.94500
O109        O  0.33325934  0.76492401  0.95523980    -0.90200
O110        O  0.38236167  0.77031890  0.92558926    -0.83400
C111        C  0.36001167  0.78228657  0.93560032     1.11800
O112        O  0.36478344  0.66410235  0.08378166    -0.96400
Zr113      Zr  0.37871742  0.68377625  0.02538626     1.88900
O114        O  0.44253706  0.75284732  0.96180419    -0.73100
O115        O  0.32569655  0.75448241  0.02735727    -0.52400
O116        O  0.38463378  0.73467757  0.06225664    -0.97000
O117        O  0.41829884  0.65951963  0.04667911    -0.54200
O118        O  0.43833602  0.73227347  0.01556401    -0.73600
C119        C  0.45543989  0.75357401  0.99121947     0.98700
O120        O  0.40290340  0.73647653  0.87615953    -0.62400
O121        O  0.35825929  0.57198195  0.90406760    -0.57200
O122        O  0.43057778  0.69711617  0.90648586    -0.93900
O123        O  0.41756877  0.63791534  0.91929594    -0.92300
O124        O  0.29310978  0.59756981  0.86260382    -0.92700
O125        O  0.30021357  0.66790764  0.85649921    -0.91500
C126        C  0.43727186  0.66920797  0.90571371     1.17600
H127        H  0.28818620  0.57085440  0.93965907     0.33500
H128        H  0.32109814  0.71267115  0.91263066     0.44400
H129        H  0.42185972  0.67860437  0.97177664     0.37900
H130        H  0.30823699  0.66987203  0.04496278     0.34400
H131        H  0.22891071  0.63152664  0.87463041     0.26200
H132        H  0.30972691  0.76635187  0.02479460     0.32100
H133        H  0.39544124  0.75691343  0.04801054     0.38000
H134        H  0.27162252  0.59218347  0.84905740     0.32500
H135        H  0.35950118  0.55027817  0.91383848     0.31400
H136        H  0.40334992  0.57499155  0.97161021     0.33000
H137        H  0.43485993  0.66188101  0.02777200     0.32000
H138        H  0.32631993  0.67818544  0.85270962     0.36000
H139        H  0.39848717  0.71470288  0.86186655     0.28700
H140        H  0.23978611  0.56362276  0.05651166     0.33000
H141        H  0.38643773  0.67998225  0.09666584     0.35800
H142        H  0.33335830  0.56260952  0.89621897     0.28400
H143        H  0.38412122  0.74343378  0.86921689     0.41300
H144        H  0.25567730  0.73515101  0.98140291     0.31400
H145        H  0.22262657  0.63819761  0.91257596     0.39000
H146        H  0.40307123  0.63268307  0.04868762     0.30800
H147        H  0.31821207  0.74110839  0.04893814     0.30900
H148        H  0.27002744  0.59943850  0.07240598     0.31200
C149        C  0.21515994  0.21922527  0.09857579     0.80300
N150        N  0.21238062  0.24884375  0.08542757    -0.78000
C151        C  0.24011044  0.27485268  0.06763949     0.82800
N152        N  0.27069245  0.27153414  0.06364656    -0.77900
C153        C  0.27419207  0.24284985  0.07688881     0.82900
N154        N  0.24657546  0.21683360  0.09458898    -0.79600
C155        C  0.26236366  0.00955002  0.86307122     0.80300
N156        N  0.28600764  0.04201585  0.87700519    -0.78000
C157        C  0.31759797  0.04564055  0.88896384     0.82800
N158        N  0.32592787  0.01714244  0.88636826    -0.77900
C159        C  0.30302013  0.98479608  0.87223553     0.82900
N160        N  0.27071016  0.98068295  0.86137176    -0.79600
C161        C  0.00117765  0.70674684  0.16707584     0.80300
N162        N  0.03180109  0.70465736  0.15874212    -0.78000
C163        C  0.03114554  0.67200135  0.14997750     0.82800
N164        N  0.99969567  0.64119656  0.14912740    -0.77900
C165        C  0.96879110  0.64263568  0.15725053     0.82900
N166        N  0.96951723  0.67548995  0.16640285    -0.79600
C167        C  0.02279892  0.29681807  0.92362143     0.80300
N168        N  0.02618843  0.26739531  0.91050591    -0.78000
C169        C  0.99812943  0.23313127  0.91164574     0.82800
N170        N  0.96628235  0.22860419  0.92513505    -0.77900
C171        C  0.96287370  0.25802177  0.93821885     0.82900
N172        N  0.99105765  0.29191491  0.93702538    -0.79600
C173        C  0.75307919  0.97462323  0.08612322     0.80300
N174        N  0.75073357  0.00697016  0.08744478    -0.78000
C175        C  0.72163492  0.00920085  0.07537595     0.82800
N176        N  0.69494824  0.97862238  0.06191248    -0.77900
C177        C  0.69677825  0.94617584  0.06025569     0.82900
N178        N  0.72570897  0.94391515  0.07307322    -0.79600
Zr179      Zr  0.59679252  0.25928119  0.45955418     2.17500
O180        O  0.56955945  0.23829865  0.40451414    -0.51200
O181        O  0.54640560  0.21375269  0.49086575    -0.74400
O182        O  0.60549846  0.20704899  0.43798613    -0.81200
O183        O  0.55749198  0.32808067  0.46605614    -0.82900
O184        O  0.65761709  0.21225777  0.45974959    -0.78600
O185        O  0.54872178  0.27303522  0.44330908    -0.90200
O186        O  0.55636546  0.22696156  0.54669932    -0.76200
O187        O  0.62414599  0.24536477  0.50582360    -0.85700
O188        O  0.58791563  0.29061917  0.50729769    -0.85300
O189        O  0.65825815  0.28172082  0.44302160    -0.72100
O190        O  0.62431552  0.32344246  0.44501033    -0.84200
Zr191      Zr  0.70594054  0.36425341  0.52436638     2.26400
Zr192      Zr  0.68589855  0.26947805  0.49039846     2.06300
Zr193      Zr  0.61579557  0.35433725  0.49383716     2.10000
Zr194      Zr  0.61595395  0.27750357  0.55318030     1.78800
O195        O  0.60966496  0.40040520  0.45952166    -0.93000
O196        O  0.62085909  0.22712454  0.58159326    -0.40800
O197        O  0.64423690  0.34219703  0.54083722    -0.77500
O198        O  0.67780468  0.30029433  0.53900034    -0.96200
O199        O  0.71550833  0.33343539  0.47670807    -0.89500
O200        O  0.67714072  0.37667473  0.47827034    -0.92300
C201        C  0.53684005  0.20839361  0.52200041     1.01400
C202        C  0.53896477  0.29835492  0.44922207     1.14400
C203        C  0.62955568  0.19593390  0.44186741     1.05200
O204        O  0.68598706  0.22176834  0.52691831    -0.94500
O205        O  0.74166820  0.29350849  0.52028794    -0.90200
O206        O  0.75362898  0.34965094  0.54282886    -0.83400
C207        C  0.76052206  0.32203154  0.53811400     1.11800
O208        O  0.67169654  0.32744116  0.37241816    -0.96400
Zr209      Zr  0.68658468  0.34590631  0.43096459     1.88900
O210        O  0.75243999  0.41451036  0.49305115    -0.73100
O211        O  0.72802253  0.26362467  0.45065966    -0.52400
O212        O  0.73209695  0.33221431  0.40419166    -0.97000
O213        O  0.67789671  0.38989592  0.39571761    -0.54200
O214        O  0.73952202  0.40390434  0.43728360    -0.73600
C215        C  0.75821526  0.42351975  0.46181978     0.98700
O216        O  0.72822674  0.38422076  0.58117917    -0.62400
O217        O  0.57816943  0.35886780  0.53928357    -0.57200
O218        O  0.70074717  0.41928464  0.54066729    -0.93900
O219        O  0.64924087  0.41530387  0.51885981    -0.92300
O220        O  0.58052295  0.29691360  0.59026730    -0.92700
O221        O  0.63715421  0.29122476  0.61094874    -0.91500
C222        C  0.67871901  0.43252774  0.53485657     1.17600
H223        H  0.56289066  0.28283655  0.51201875     0.33500
H224        H  0.68961637  0.29622922  0.55809224     0.44400
H225        H  0.68704274  0.40268716  0.47372884     0.37900
H226        H  0.66054616  0.26877579  0.42324797     0.34400
H227        H  0.59942169  0.21608651  0.59630510     0.26200
H228        H  0.74949458  0.28770646  0.45155488     0.32100
H229        H  0.75490487  0.34970428  0.41447604     0.38000
H230        H  0.55590386  0.28421142  0.58149489     0.32500
H231        H  0.57098729  0.37766160  0.53157434     0.31400
H232        H  0.61239670  0.39350011  0.43601866     0.33000
H233        H  0.70139747  0.40465160  0.38484455     0.32000
H234        H  0.66124781  0.31220620  0.60905120     0.36000
H235        H  0.74546458  0.41055233  0.57932070     0.28700
H236        H  0.55317902  0.21179583  0.40714284     0.33000
H237        H  0.64679542  0.30781824  0.37330952     0.35800
H238        H  0.55596356  0.33547093  0.53830002     0.28400
H239        H  0.70771390  0.38400707  0.59410050     0.41300
H240        H  0.68904913  0.23231609  0.54997103     0.31400
H241        H  0.61674555  0.20834072  0.56382767     0.39000
H242        H  0.67486084  0.40716419  0.41179833     0.30800
H243        H  0.73540976  0.24631687  0.46151131     0.30900
H244        H  0.58900827  0.23912874  0.38950271     0.31200
C245        C  0.75009929  0.74671775  0.62889996     0.80300
N246        N  0.75340338  0.71561231  0.62099124    -0.78000
C247        C  0.72624695  0.68682996  0.60557787     0.82800
N248        N  0.69602075  0.68930486  0.59787650    -0.77900
C249        C  0.69228811  0.71990252  0.60575278     0.82900
N250        N  0.71943435  0.74885103  0.62111348    -0.79600
Zr251      Zr  0.26896866  0.59190556  0.48487880     2.17500
O252        O  0.23881978  0.56426841  0.43229599    -0.51200
O253        O  0.22891955  0.54396289  0.52259587    -0.74400
O254        O  0.27663829  0.53798553  0.46987704    -0.81200
O255        O  0.22881773  0.65902167  0.48635294    -0.82900
O256        O  0.33309506  0.54854062  0.48350250    -0.78600
O257        O  0.21781864  0.60157609  0.46800994    -0.90200
O258        O  0.25313669  0.55522687  0.57468524    -0.76200
O259        O  0.30540059  0.58532493  0.52720087    -0.85700
O260        O  0.26244688  0.62318129  0.53356073    -0.85300
O261        O  0.32852348  0.61740989  0.46146308    -0.72100
O262        O  0.29026668  0.65451023  0.46751461    -0.84200
Zr263      Zr  0.37966634  0.70645610  0.53731001     2.26400
Zr264      Zr  0.36474434  0.61142356  0.50507859     2.06300
Zr265      Zr  0.28414329  0.68560587  0.51674445     2.10000
Zr266      Zr  0.29984472  0.61754102  0.57547237     1.78800
O267        O  0.27523507  0.73324251  0.48752210    -0.93000
O268        O  0.32246447  0.58362972  0.61011287    -0.40800
O269        O  0.32029666  0.68033840  0.56011943    -0.77500
O270        O  0.35977826  0.64373454  0.55429066    -0.96200
O271        O  0.38599453  0.67415460  0.48915093    -0.89500
O272        O  0.34381924  0.71348555  0.49456020    -0.92300
C273        C  0.22999760  0.53472749  0.55329833     1.01400
C274        C  0.20992914  0.62869170  0.47097889     1.14400
C275        C  0.30153965  0.52803555  0.47244324     1.05200
O276        O  0.37756931  0.57302611  0.54388616    -0.94500
O277        O  0.42603695  0.64436287  0.52528844    -0.90200
O278        O  0.43349844  0.69962760  0.54625421    -0.83400
C279        C  0.44490299  0.67573135  0.53952721     1.11800
O280        O  0.32056323  0.66570772  0.39229199    -0.96400
Zr281      Zr  0.35047473  0.68106172  0.44663163     1.88900
O282        O  0.42416535  0.75251185  0.50142743    -0.73100
O283        O  0.40006903  0.60437900  0.45873478    -0.52400
O284        O  0.38197806  0.66044117  0.40586460    -0.97000
O285        O  0.34726125  0.73339660  0.42003554    -0.54200
O286        O  0.41179442  0.72857328  0.44842421    -0.73600
C287        C  0.43215506  0.75185318  0.47019046     0.98700
O288        O  0.40705512  0.72990856  0.59201450    -0.62400
O289        O  0.23778699  0.67779047  0.55820907    -0.57200
O290        O  0.36926850  0.75774084  0.55814482    -0.93900
O291        O  0.31005645  0.74057735  0.55067579    -0.92300
O292        O  0.25197060  0.62031873  0.60912753    -0.92700
O293        O  0.32283115  0.64767383  0.62936082    -0.91500
C294        C  0.34094435  0.76230711  0.56190103     1.17600
H295        H  0.23780251  0.61300427  0.54093355     0.33500
H296        H  0.37511373  0.64254830  0.57171471     0.44400
H297        H  0.35162766  0.73921168  0.48975991     0.37900
H298        H  0.32904392  0.60335322  0.44179996     0.34400
H299        H  0.30429637  0.57254437  0.62814203     0.26200
H300        H  0.42154583  0.62842122  0.45737199     0.32100
H301        H  0.40603228  0.66833093  0.41544373     0.38000
H302        H  0.25016386  0.60564875  0.62942988     0.32500
H303        H  0.25072905  0.69056140  0.57879831     0.31400
H304        H  0.29857176  0.75540900  0.48835333     0.33000
H305        H  0.36959174  0.75522245  0.42621974     0.32000
H306        H  0.34909418  0.66005900  0.62625119     0.36000
H307        H  0.38834949  0.73214915  0.60603530     0.28700
H308        H  0.22380549  0.53788911  0.43719780     0.33000
H309        H  0.33846457  0.68161466  0.37561807     0.35800
H310        H  0.22682398  0.69327358  0.54995404     0.28400
H311        H  0.40969792  0.70924545  0.60243798     0.41300
H312        H  0.39185523  0.56356646  0.53043045     0.31400
H313        H  0.32027799  0.56254966  0.59584093     0.39000
H314        H  0.32820535  0.73668737  0.43248891     0.30800
H315        H  0.40898420  0.58725979  0.46733948     0.30900
H316        H  0.25785437  0.56475340  0.41689270     0.31200
C317        C  0.24556237  0.99100348  0.63234622     0.80300
N318        N  0.25180117  0.96143927  0.63808540    -0.78000
C319        C  0.28277829  0.96158131  0.62725073     0.82800
N320        N  0.30708809  0.99105196  0.61041479    -0.77900
C321        C  0.30117394  0.02059801  0.60433063     0.82900
N322        N  0.27025398  0.02063398  0.61541159    -0.79600
C323        C  0.98837633  0.24376556  0.65037678     0.80300
N324        N  0.02061493  0.27223210  0.64288558    -0.78000
C325        C  0.02241971  0.30449454  0.63186720     0.82800
N326        N  0.99195640  0.30758983  0.62707473    -0.77900
C327        C  0.95951959  0.27942383  0.63393110     0.82900
N328        N  0.95789072  0.24743912  0.64590029    -0.79600
C329        C  0.99149356  0.72607334  0.37619794     0.80300
N330        N  0.95936773  0.69915000  0.38676806    -0.78000
C331        C  0.95696879  0.66682254  0.39847086     0.82800
N332        N  0.98665514  0.66168431  0.39974330    -0.77900
C333        C  0.01879641  0.68795913  0.38949014     0.82900
N334        N  0.02123422  0.72036411  0.37770681    -0.79600
C335        C  0.22993022  0.21580742  0.37047877     0.80300
N336        N  0.26183674  0.21417189  0.36971754    -0.78000
C337        C  0.29226707  0.24428335  0.37866516     0.82800
N338        N  0.29046315  0.27527008  0.38900218    -0.77900
C339        C  0.25906789  0.27723637  0.39003299     0.82900
N340        N  0.22865558  0.24742062  0.38064730    -0.79600
C341        C  0.72139409  0.97058877  0.35262328     0.80300
N342        N  0.71465574  0.00025309  0.34874350    -0.78000
C343        C  0.68209483  0.99789942  0.35715773     0.82800
N344        N  0.65686811  0.96621323  0.37003252    -0.77900
C345        C  0.66306826  0.93664551  0.37397427     0.82900
N346        N  0.69531007  0.93860681  0.36509163    -0.79600
C347        C  0.98851279  0.97514142  0.21146093     0.45600
H348        H  0.99212286  0.97401690  0.18379096    -0.03400
C349        C  0.98133760  0.97822795  0.27672517     0.45600
H350        H  0.97871819  0.97936975  0.30455423    -0.03400
C351        C  0.95482779  0.97921467  0.22226559    -0.17100
C352        C  0.98647479  0.94088820  0.23033205    -0.16900
C353        C  0.01920344  0.00865676  0.22791206    -0.17300
C354        C  0.94972032  0.97830004  0.25696907    -0.17200
C355        C  0.98289132  0.94302137  0.26465513    -0.16800
C356        C  0.01571317  0.01012432  0.26232089    -0.17100
C357        C  0.85143701  0.95209743  0.27807334    -0.22300
C358        C  0.85499698  0.97689124  0.30414305     0.09600
C359        C  0.88910788  0.99923030  0.31728421     0.10000
C360        C  0.91911302  0.99728621  0.30282801    -0.17300
C361        C  0.91614778  0.97481545  0.27454415    -0.27700
C362        C  0.88122836  0.95000073  0.26374991     0.18400
C363        C  0.82217262  0.97776804  0.31760584     0.12300
C364        C  0.89393870  0.02580261  0.34585320    -0.12000
H365        H  0.94490865  0.01387147  0.31354396     0.12600
C366        C  0.87367002  0.91930521  0.23888408    -0.22900
H367        H  0.82494129  0.93367484  0.26916530     0.08300
C368        C  0.80387425  0.99325983  0.29892777     0.04600
C369        C  0.77136268  0.99089132  0.31132876    -0.20100
C370        C  0.75633233  0.97282396  0.34168122    -0.12400
C371        C  0.77494580  0.95758820  0.36056298     0.13300
C372        C  0.80770565  0.96036154  0.34824703    -0.22800
C373        C  0.81868873  0.01232943  0.26592423    -0.05900
H374        H  0.75718543  0.00255193  0.29682919     0.14800
C375        C  0.76103673  0.93917414  0.39399126    -0.16100
H376        H  0.82185528  0.94829180  0.36224815     0.09200
H377        H  0.86140050  0.92383592  0.21594782     0.07000
H378        H  0.85492017  0.89269078  0.25027356     0.08200
H379        H  0.89791890  0.91682873  0.23194547     0.07300
H380        H  0.87924193  0.01057480  0.36855214     0.02100
H381        H  0.88353190  0.04546298  0.33845763     0.02600
H382        H  0.92250562  0.04188279  0.35257051     0.06100
H383        H  0.80123202  0.02334229  0.25483060     0.05100
H384        H  0.82103094  0.99275330  0.24742843    -0.00700
H385        H  0.84547888  0.03565875  0.26997652     0.00800
H386        H  0.73572111  0.91377645  0.39046412     0.04500
H387        H  0.75651858  0.95835909  0.41139822     0.06400
H388        H  0.78020734  0.93106035  0.40609081     0.07300
C389        C  0.15151922  0.12038539  0.36110183    -0.22300
C390        C  0.13608248  0.12468413  0.33135726     0.09600
C391        C  0.15094775  0.15927730  0.31530470     0.10000
C392        C  0.18103159  0.18866123  0.32923489    -0.17300
C393        C  0.19706697  0.18417430  0.35849642    -0.27700
C394        C  0.18183755  0.14970308  0.37491243     0.18400
C395        C  0.10458160  0.09277195  0.31702710     0.12300
C396        C  0.13573345  0.16487491  0.28288561    -0.12000
H397        H  0.19267563  0.21510892  0.31675490     0.12600
C398        C  0.19629118  0.14310798  0.40734832    -0.22900
H399        H  0.13983018  0.09396049  0.37362050     0.08300
C400        C  0.10810805  0.06436571  0.29893969     0.04600
C401        C  0.07809127  0.03677272  0.28302953    -0.20100
C402        C  0.04486131  0.03761871  0.28363363    -0.12400
C403        C  0.04168845  0.06651120  0.30143264     0.13300
C404        C  0.07115974  0.09281190  0.31887934    -0.22800
C405        C  0.14383424  0.06407260  0.29521597    -0.05900
H406        H  0.08086411  0.01516951  0.26882295     0.14800
C407        C  0.00895239  0.07263481  0.30022540    -0.16100
H408        H  0.06865212  0.11502082  0.33227398     0.09200
H409        H  0.20481840  0.12106502  0.40340525     0.07000
H410        H  0.17503223  0.13418051  0.42704830     0.08200
H411        H  0.21937540  0.16796670  0.41698459     0.07300
H412        H  0.10782401  0.16043862  0.28699977     0.02100
H413        H  0.13611783  0.14509284  0.26348859     0.02600
H414        H  0.15133369  0.19315188  0.27300556     0.06100
H415        H  0.14212396  0.04051735  0.27947759     0.05100
H416        H  0.15392162  0.06186208  0.32037653    -0.00700
H417        H  0.16317169  0.08989350  0.28299793     0.00800
H418        H  0.99713487  0.06985569  0.32587949     0.04500
H419        H  0.98900431  0.05329716  0.28280520     0.06400
H420        H  0.01623073  0.10077167  0.29085318     0.07300
C421        C  0.01104008  0.80987097  0.32163471    -0.22300
C422        C  0.99148405  0.82551830  0.33867464     0.09600
C423        C  0.97312114  0.80917221  0.36877508     0.10000
C424        C  0.97427692  0.77724530  0.38068852    -0.17300
C425        C  0.99360269  0.76131672  0.36347523    -0.27700
C426        C  0.01257644  0.77819775  0.33367801     0.18400
C427        C  0.98887291  0.85750555  0.32325428     0.12300
C428        C  0.95254445  0.82550310  0.38852225    -0.12000
H429        H  0.95985526  0.76451691  0.40358732     0.12600
C430        C  0.03313616  0.76215811  0.31352003    -0.22900
H431        H  0.02459771  0.82213232  0.29831092     0.08300
C432        C  0.01861327  0.89253266  0.32059284     0.04600
C433        C  0.01503475  0.92094644  0.30370104    -0.20100
C434        C  0.98287216  0.91474937  0.28829908    -0.12400
C435        C  0.95276967  0.88029834  0.29230739     0.13300
C436        C  0.95617753  0.85205520  0.30951009    -0.22800
C437        C  0.05428593  0.89983819  0.33496356    -0.05900
H438        H  0.03801903  0.94749622  0.30072303     0.14800
C439        C  0.91703665  0.87322992  0.27852713    -0.16100
H440        H  0.93342563  0.82518785  0.31146765     0.09200
H441        H  0.05572397  0.76317741  0.32853199     0.07000
H442        H  0.04447977  0.77773019  0.28995515     0.08200
H443        H  0.01521315  0.73321604  0.30641795     0.07300
H444        H  0.93018550  0.82470979  0.37331382     0.02100
H445        H  0.97057566  0.85448142  0.39541135     0.02600
H446        H  0.94100469  0.81011696  0.41212520     0.06100
H447        H  0.07421826  0.92900286  0.33165938     0.05100
H448        H  0.06488108  0.88234397  0.32200621    -0.00700
H449        H  0.05136987  0.89372707  0.36233042     0.00800
H450        H  0.91883463  0.87574172  0.25085323     0.04500
H451        H  0.90867052  0.89349362  0.28947934     0.06400
H452        H  0.89613478  0.84516340  0.28463966     0.07300
C453        C  0.17897587  0.44541331  0.60245218    -0.22300
C454        C  0.14721307  0.42948541  0.58433949     0.09600
C455        C  0.14294170  0.44728509  0.55579460     0.10000
C456        C  0.17068222  0.48108490  0.54604790    -0.17300
C457        C  0.20239697  0.49810893  0.56466591    -0.27700
C458        C  0.20667122  0.47957631  0.59323659     0.18400
C459        C  0.11715306  0.39652058  0.59815017     0.12300
C460        C  0.10866372  0.43110132  0.53621266    -0.12000
H461        H  0.16700713  0.49474839  0.52422790     0.12600
C462        C  0.23991350  0.49502854  0.61441514    -0.22900
H463        H  0.18157143  0.43144262  0.62458836     0.08300
C464        C  0.11090907  0.36055155  0.58876971     0.04600
C465        C  0.08064539  0.33049603  0.60170344    -0.20100
C466        C  0.05685539  0.33597649  0.62375669    -0.12400
C467        C  0.06451406  0.37211941  0.63454030     0.13300
C468        C  0.09433540  0.40190892  0.62120732    -0.22800
C469        C  0.13578748  0.35409589  0.56477585    -0.05900
H470        H  0.07476125  0.30280215  0.59352963     0.14800
C471        C  0.04232051  0.38041443  0.66046177    -0.16100
H472        H  0.09986589  0.42969513  0.62882428     0.09200
H473        H  0.23882890  0.47560568  0.63436893     0.07000
H474        H  0.24287197  0.52062037  0.62734862     0.08200
H475        H  0.26364768  0.50055190  0.59831052     0.07300
H476        H  0.08609840  0.42833657  0.55290722     0.02100
H477        H  0.10353444  0.40355365  0.52619473     0.02600
H478        H  0.10970446  0.44867667  0.51460496     0.06100
H479        H  0.12698572  0.32428015  0.56005451     0.05100
H480        H  0.16304196  0.36598889  0.57552636    -0.00700
H481        H  0.13680416  0.36740351  0.54026875     0.00800
H482        H  0.05986908  0.39762109  0.68097578     0.04500
H483        H  0.02154213  0.35542704  0.67248534     0.06400
H484        H  0.02931685  0.39584098  0.64851066     0.07300
C485        C  0.24909879  0.36580503  0.39917453    -0.22300
C486        C  0.26942384  0.38083254  0.42817066     0.09600
C487        C  0.28391640  0.36070712  0.44555108     0.10000
C488        C  0.27820002  0.32607448  0.43320366    -0.17300
C489        C  0.25898406  0.31133282  0.40344041    -0.27700
C490        C  0.24421961  0.33154099  0.38611029     0.18400
C491        C  0.27735833  0.41872409  0.43876815     0.12300
C492        C  0.30642208  0.37635358  0.47645820    -0.12000
H493        H  0.28979034  0.31080719  0.44635203     0.12600
C494        C  0.22540973  0.31944256  0.35283328    -0.22900
H495        H  0.23840736  0.38173829  0.38577056     0.08300
C496        C  0.30650567  0.44942919  0.42475471     0.04600
C497        C  0.31409121  0.48488354  0.43647634    -0.20100
C498        C  0.29303724  0.49016715  0.46172006    -0.12400
C499        C  0.26396973  0.45932258  0.47593735     0.13300
C500        C  0.25649534  0.42387876  0.46423891    -0.22800
C501        C  0.32977255  0.44465960  0.39771873    -0.05900
H502        H  0.33630701  0.50861586  0.42569356     0.14800
C503        C  0.24152030  0.46356876  0.50411754    -0.16100
H504        H  0.23452078  0.40003293  0.47515891     0.09200
H505        H  0.23928137  0.34114232  0.33377068     0.07000
H506        H  0.19745263  0.31535643  0.35566464     0.08200
H507        H  0.22493608  0.29370860  0.34278012     0.07300
H508        H  0.29052784  0.38195224  0.49634780     0.02100
H509        H  0.33016090  0.40241859  0.47003003     0.02600
H510        H  0.31596666  0.35708321  0.48683780     0.06100
H511        H  0.35146277  0.47150581  0.38958435     0.05100
H512        H  0.31341234  0.43084757  0.37535052    -0.00700
H513        H  0.34223439  0.42760950  0.40735345     0.00800
H514        H  0.22718865  0.47902774  0.49512810     0.04500
H515        H  0.25882274  0.47853943  0.52563513     0.06400
H516        H  0.22116449  0.43650966  0.51340466     0.07300
C517        C  0.34809004  0.85596908  0.58236897    -0.22300
C518        C  0.32563258  0.84749355  0.61086636     0.09600
C519        C  0.31358514  0.81285596  0.62615241     0.10000
C520        C  0.32204451  0.78635226  0.61101413    -0.17300
C521        C  0.34249417  0.79396676  0.58119992    -0.27700
C522        C  0.35684648  0.82958267  0.56733213     0.18400
C523        C  0.31227421  0.87403321  0.62180741     0.12300
C524        C  0.29120661  0.80368725  0.65788118    -0.12000
H525        H  0.31104030  0.75886530  0.62144023     0.12600
C526        C  0.37967061  0.84000870  0.53582942    -0.22900
H527        H  0.35745772  0.88281076  0.57086688     0.08300
C528        C  0.33442214  0.90703937  0.63854944     0.04600
C529        C  0.32287153  0.93441938  0.64249138    -0.20100
C530        C  0.28948362  0.92911215  0.63044000    -0.12400
C531        C  0.26620600  0.89486658  0.61601978     0.13300
C532        C  0.27797438  0.86767974  0.61181921    -0.22800
C533        C  0.37040150  0.91348474  0.65154337    -0.05900
H534        H  0.34058091  0.96070674  0.65367269     0.14800
C535        C  0.23011392  0.88787241  0.60281532    -0.16100
H536        H  0.26111561  0.84206581  0.59907900     0.09200
H537        H  0.40586612  0.86360262  0.54147849     0.07000
H538        H  0.36628125  0.84827829  0.51601430     0.08200
H539        H  0.38486720  0.81732013  0.52558494     0.07300
H540        H  0.26579761  0.80518650  0.65329621     0.02100
H541        H  0.30609415  0.82358167  0.67812118     0.02600
H542        H  0.28459662  0.77554050  0.66681949     0.06100
H543        H  0.38409502  0.94052847  0.66458811     0.05100
H544        H  0.38775449  0.91292108  0.63035594    -0.00700
H545        H  0.36701577  0.89160547  0.66976199     0.00800
H546        H  0.23322355  0.90841123  0.58323705     0.04500
H547        H  0.21320310  0.88988220  0.62377661     0.06400
H548        H  0.21596304  0.86001449  0.59132736     0.07300
C549        C  0.51533116  0.83974963  0.44948253    -0.22300
C550        C  0.53560845  0.82521203  0.43199810     0.09600
C551        C  0.52262228  0.78682871  0.42862238     0.10000
C552        C  0.48874728  0.76369053  0.44157861    -0.17300
C553        C  0.46797136  0.77809508  0.45841966    -0.27700
C554        C  0.48159648  0.81653173  0.46301663     0.18400
C555        C  0.56949264  0.85074294  0.41579178     0.12300
C556        C  0.54453082  0.77039644  0.41136235    -0.12000
H557        H  0.47840372  0.73411278  0.43868282     0.12600
C558        C  0.46014245  0.83309848  0.48090127    -0.22900
H559        H  0.52569405  0.86936098  0.45193194     0.08300
C560        C  0.57026595  0.86163817  0.38208370     0.04600
C561        C  0.60257948  0.88723955  0.36805534    -0.20100
C562        C  0.63380166  0.90302016  0.38726112    -0.12400
C563        C  0.63308261  0.89192103  0.42100424     0.13300
C564        C  0.60089662  0.86538864  0.43471985    -0.22800
C565        C  0.53667420  0.84774035  0.36151765    -0.05900
H566        H  0.60306091  0.89676070  0.34255370     0.14800
C567        C  0.66493604  0.90906711  0.44382344    -0.16100
H568        H  0.59995026  0.85711561  0.46073151     0.09200
H569        H  0.47433018  0.86365740  0.48105423     0.07000
H570        H  0.45521043  0.82384337  0.50748391     0.08200
H571        H  0.43419228  0.82447673  0.46806033     0.07300
H572        H  0.57018723  0.77917018  0.42477671     0.02100
H573        H  0.55018449  0.77977724  0.38485077     0.02600
H574        H  0.53047943  0.73983512  0.41120209     0.06100
H575        H  0.54201219  0.85957683  0.33578680     0.05100
H576        H  0.51712882  0.85552951  0.37409300    -0.00700
H577        H  0.52469110  0.81733996  0.35900619     0.00800
H578        H  0.65849875  0.92276345  0.46546713     0.04500
H579        H  0.68903656  0.92988760  0.43101856     0.06400
H580        H  0.67149396  0.88731661  0.45354023     0.07300
C581        C  0.10921774  0.69394402  0.41295145    -0.22300
C582        C  0.10174770  0.65669902  0.41020375     0.09600
C583        C  0.06900327  0.63113068  0.39670489     0.10000
C584        C  0.04376887  0.64312385  0.38748660    -0.17300
C585        C  0.05002247  0.67996850  0.39219545    -0.27700
C586        C  0.08371487  0.70599080  0.40412813     0.18400
C587        C  0.12723994  0.64457186  0.42437687     0.12300
C588        C  0.06004571  0.59090941  0.39346190    -0.12000
H589        H  0.01817455  0.62310949  0.37799982     0.12600
C590        C  0.09228311  0.74586128  0.40944286    -0.22900
H591        H  0.13459527  0.71336056  0.42333178     0.08300
C592        C  0.15472583  0.64277035  0.40465464     0.04600
C593        C  0.17949096  0.63332545  0.42005399    -0.20100
C594        C  0.17770130  0.62653382  0.45477992    -0.12400
C595        C  0.14930481  0.62693852  0.47420387     0.13300
C596        C  0.12426425  0.63574159  0.45868035    -0.22800
C597        C  0.15890068  0.65255863  0.36784708    -0.05900
H598        H  0.20179355  0.63381636  0.40544489     0.14800
C599        C  0.14529541  0.61916217  0.51147410    -0.16100
H600        H  0.10284445  0.63679668  0.47364852     0.09200
H601        H  0.11944811  0.76193790  0.41988806     0.07000
H602        H  0.07280982  0.74818177  0.42743744     0.08200
H603        H  0.09124554  0.75834608  0.38502173     0.07300
H604        H  0.06053773  0.57961160  0.41866854     0.02100
H605        H  0.07977664  0.58741167  0.37671507     0.02600
H606        H  0.03309890  0.57457361  0.38266151     0.06100
H607        H  0.18207980  0.65015100  0.35622970     0.05100
H608        H  0.16309828  0.68137488  0.36490781    -0.00700
H609        H  0.13458008  0.63389511  0.35396247     0.00800
H610        H  0.14736109  0.64388324  0.52549130     0.04500
H611        H  0.16580034  0.61155936  0.52120995     0.06400
H612        H  0.11870788  0.59588071  0.51665588     0.07300
C613        C  0.54416147  0.72796604  0.56101787    -0.22300
C614        C  0.55204576  0.69891813  0.56874382     0.09600
C615        C  0.52494527  0.66237771  0.56695028     0.10000
C616        C  0.49044536  0.65569204  0.55710812    -0.17300
C617        C  0.48217656  0.68474988  0.54940799    -0.27700
C618        C  0.50966843  0.72155414  0.55149803     0.18400
C619        C  0.58909051  0.70747713  0.57824365     0.12300
C620        C  0.53254406  0.63046783  0.57522347    -0.12000
H621        H  0.46970747  0.62755826  0.55584646     0.12600
C622        C  0.50357201  0.75440944  0.54297251    -0.22900
H623        H  0.56528245  0.75590503  0.56246083     0.08300
C624        C  0.61602402  0.71492330  0.55358393     0.04600
C625        C  0.65033992  0.72130970  0.56364215    -0.20100
C626        C  0.65828492  0.72040593  0.59774461    -0.12400
C627        C  0.63140087  0.71342306  0.62249120     0.13300
C628        C  0.59719646  0.70744734  0.61240304    -0.22800
C629        C  0.60818997  0.71484359  0.51663622    -0.05900
H630        H  0.67078679  0.72574067  0.54472103     0.14800
C631        C  0.63729533  0.71030490  0.65946654    -0.16100
H632        H  0.57638281  0.70165688  0.63124345     0.09200
H633        H  0.52871972  0.78047494  0.54366773     0.07000
H634        H  0.48491830  0.75739577  0.56151972     0.08200
H635        H  0.49266071  0.75115402  0.51716777     0.07300
H636        H  0.54158414  0.63289188  0.60170368     0.02100
H637        H  0.55375098  0.63041675  0.55811542     0.02600
H638        H  0.50846474  0.60365926  0.57233052     0.06100
H639        H  0.63211764  0.72061182  0.50069747     0.05100
H640        H  0.59931945  0.73628539  0.51154239    -0.00700
H641        H  0.58679184  0.68749026  0.50919550     0.00800
H642        H  0.63196808  0.73095686  0.67393507     0.04500
H643        H  0.66483643  0.71492269  0.66512881     0.06400
H644        H  0.61863090  0.68235589  0.66836332     0.07300
C645        C  0.82201810  0.31701233  0.60502021    -0.22300
C646        C  0.84379514  0.30612352  0.58534699     0.09600
C647        C  0.83992847  0.30345835  0.55001985     0.10000
C648        C  0.81392867  0.31122985  0.53514900    -0.17300
C649        C  0.79156496  0.32143980  0.55474748    -0.27700
C650        C  0.79573703  0.32455019  0.59014826     0.18400
C651        C  0.87162062  0.29911239  0.60191061     0.12300
C652        C  0.86300985  0.29208400  0.52804006    -0.12000
H653        H  0.81030660  0.30832892  0.50807630     0.12600
C654        C  0.77156353  0.33408398  0.61241074    -0.22900
H655        H  0.82536302  0.31915233  0.63212874     0.08300
C656        C  0.90459141  0.32842654  0.61061139     0.04600
C657        C  0.93158369  0.32077297  0.62324203    -0.20100
C658        C  0.92704528  0.28437051  0.62648501    -0.12400
C659        C  0.89313576  0.25486475  0.61910241     0.13300
C660        C  0.86584431  0.26275673  0.60701749    -0.22800
C661        C  0.91183293  0.36783559  0.60515130    -0.05900
H662        H  0.95699439  0.34368548  0.62941507     0.14800
C663        C  0.88560964  0.21512525  0.62244956    -0.16100
H664        H  0.84019741  0.24045861  0.60036437     0.09200
H665        H  0.77761404  0.33371709  0.63953198     0.07000
H666        H  0.74328726  0.31388501  0.60839856     0.08200
H667        H  0.77514667  0.36213625  0.60643339     0.07300
H668        H  0.85856072  0.26389104  0.53474434     0.02100
H669        H  0.89157350  0.31152171  0.53170796     0.02600
H670        H  0.85682447  0.29198037  0.50089483     0.06100
H671        H  0.93930872  0.38748527  0.61273723     0.05100
H672        H  0.89272929  0.37417367  0.62028311    -0.00700
H673        H  0.90878498  0.37221553  0.57805171     0.00800
H674        H  0.88881506  0.20919569  0.64908033     0.04500
H675        H  0.90405123  0.20917954  0.60590273     0.06400
H676        H  0.85790061  0.19608576  0.61496000     0.07300
C677        C  0.63095729  0.05456697  0.35721972    -0.22300
C678        C  0.65593650  0.08696288  0.37233069     0.09600
C679        C  0.69160694  0.09283858  0.37585271     0.10000
C680        C  0.70056012  0.06421579  0.36774223    -0.17300
C681        C  0.67451880  0.03010218  0.35610079    -0.27700
C682        C  0.63991140  0.02612322  0.34856556     0.18400
C683        C  0.64329267  0.11207464  0.38838839     0.12300
C684        C  0.71980134  0.12885048  0.38925760    -0.12000
H685        H  0.72728199  0.06766899  0.37272227     0.12600
C686        C  0.61224716  0.99209702  0.33145274    -0.22900
H687        H  0.60389758  0.05084101  0.35372574     0.08300
C688        C  0.64101811  0.14074946  0.37063181     0.04600
C689        C  0.63240614  0.16596068  0.38835979    -0.20100
C690        C  0.62667718  0.16317221  0.42339654    -0.12400
C691        C  0.62690597  0.13309652  0.44069118     0.13300
C692        C  0.63497263  0.10774676  0.42287721    -0.22800
C693        C  0.64926054  0.14557488  0.33346045    -0.05900
H694        H  0.63274487  0.18940719  0.37530518     0.14800
C695        C  0.61975666  0.12761181  0.47805502    -0.16100
H696        H  0.63619147  0.08521490  0.43625620     0.09200
H697        H  0.58849907  0.99575902  0.32420614     0.07000
H698        H  0.60264514  0.96805800  0.34842898     0.08200
H699        H  0.62381170  0.98621329  0.30811470     0.07300
H700        H  0.71253673  0.13400238  0.41512374     0.02100
H701        H  0.72213257  0.15160758  0.37262629     0.02600
H702        H  0.74636042  0.12896250  0.39022599     0.06100
H703        H  0.64665014  0.16967837  0.32348308     0.05100
H704        H  0.63049621  0.12063019  0.31959109    -0.00700
H705        H  0.67702324  0.14980375  0.32862528     0.00800
H706        H  0.59703403  0.10015183  0.48256802     0.04500
H707        H  0.61272372  0.14848692  0.48979096     0.06400
H708        H  0.64378027  0.12894208  0.49075769     0.07300
C709        C  0.45612380  0.13137649  0.56394389    -0.22300
C710        C  0.42818951  0.13158392  0.54504942     0.09600
C711        C  0.43600740  0.15593342  0.51775932     0.10000
C712        C  0.47185008  0.17988058  0.51019544    -0.17300
C713        C  0.49992901  0.18040991  0.52968873    -0.27700
C714        C  0.49188128  0.15552520  0.55674315     0.18400
C715        C  0.39124369  0.10528775  0.55462845     0.12300
C716        C  0.40665858  0.15708222  0.49706103    -0.12000
H717        H  0.47793822  0.19906833  0.48956057     0.12600
C718        C  0.52075491  0.15362193  0.57766259    -0.22900
H719        H  0.44977966  0.11220323  0.58462052     0.08300
C720        C  0.37590191  0.06886545  0.54214838     0.12600
C721        C  0.34459435  0.04248921  0.55723494    -0.20100
C722        C  0.32858509  0.05144546  0.58496146    -0.12400
C723        C  0.34282221  0.08841162  0.59622215     0.13300
C724        C  0.37398323  0.11500051  0.58072387    -0.22800
C725        C  0.39365687  0.05736152  0.51419528    -0.05900
H726        H  0.33357820  0.01416272  0.54848933     0.14800
C727        C  0.32696289  0.09938184  0.62606580    -0.16100
H728        H  0.38620505  0.14300813  0.59034876     0.09200
H729        H  0.50968438  0.13065515  0.59596157     0.07000
H730        H  0.53474931  0.17948880  0.59231692     0.08200
H731        H  0.54009649  0.14920319  0.56104573     0.07300
H732        H  0.38899953  0.16435520  0.51345548     0.02100
H733        H  0.39058260  0.12984238  0.48514202     0.02600
H734        H  0.41757414  0.17784825  0.47674881     0.06100
H735        H  0.37832371  0.02768574  0.50779970     0.05100
H736        H  0.42081790  0.06228563  0.52195672    -0.00700
H737        H  0.39578152  0.07342238  0.49116624     0.00800
H738        H  0.32705546  0.08341479  0.64854180     0.04500
H739        H  0.29913750  0.09398859  0.62047694     0.06400
H740        H  0.34231106  0.12910802  0.63224814     0.07300
C741        C  0.39205218  0.28024447  0.37371457    -0.22300
C742        C  0.39724948  0.25809546  0.39761940     0.09600
C743        C  0.36747684  0.22691073  0.41024475     0.10000
C744        C  0.33283680  0.22031168  0.40073734    -0.17300
C745        C  0.32756340  0.24431860  0.37893462    -0.27700
C746        C  0.35760743  0.27347880  0.36388903     0.18400
C747        C  0.43393670  0.26917506  0.41015301     0.12300
C748        C  0.37230932  0.20135034  0.43449906    -0.12000
H749        H  0.30984892  0.19795948  0.41221100     0.12600
C750        C  0.35414190  0.29830246  0.33776831    -0.22900
H751        H  0.41500011  0.30356273  0.36331009     0.08300
C752        C  0.45854675  0.26076975  0.39200549     0.04600
C753        C  0.49298497  0.27211054  0.40479897    -0.20100
C754        C  0.50356873  0.29154683  0.43554621    -0.12400
C755        C  0.47874821  0.30007177  0.45369406     0.13300
C756        C  0.44432568  0.28894592  0.44059752    -0.22800
C757        C  0.44818874  0.23912769  0.35950944    -0.05900
H758        H  0.51167703  0.26521737  0.39085806     0.14800
C759        C  0.48760563  0.31924856  0.48749299    -0.16100
H760        H  0.42514716  0.29524053  0.45438095     0.09200
H761        H  0.36932524  0.29786897  0.31471600     0.07000
H762        H  0.36525352  0.32692642  0.34770788     0.08200
H763        H  0.32608974  0.28956835  0.33019155     0.07300
H764        H  0.38525436  0.21661006  0.45780554     0.02100
H765        H  0.38935782  0.18979739  0.42266375     0.02600
H766        H  0.34638863  0.17806848  0.44165667     0.06100
H767        H  0.47042306  0.23430416  0.34879810     0.05100
H768        H  0.44074039  0.25436017  0.34063671    -0.00700
H769        H  0.42508761  0.21194016  0.36404601     0.00800
H770        H  0.46444017  0.32200156  0.49872956     0.04500
H771        H  0.50980356  0.34736057  0.48472798     0.06400
H772        H  0.49538989  0.30321498  0.50522364     0.07300
C773        C  0.83993520  0.50123717  0.42262664    -0.22300
C774        C  0.83650607  0.53193233  0.43531153     0.09600
C775        C  0.80738377  0.52684407  0.45649428     0.10000
C776        C  0.78301544  0.49103870  0.46572094    -0.17300
C777        C  0.78659231  0.46028390  0.45341246    -0.27700
C778        C  0.81489795  0.46533171  0.43098416     0.18400
C779        C  0.86520358  0.56909084  0.42797227     0.12300
C780        C  0.80178187  0.55913271  0.46882951    -0.12000
H781        H  0.76036981  0.48690506  0.48171387     0.12600
C782        C  0.81893910  0.43301828  0.41619419    -0.22900
H783        H  0.86238486  0.50548102  0.40625241     0.08300
C784        C  0.89505669  0.58534001  0.44918163     0.04600
C785        C  0.92349161  0.61887766  0.43997898    -0.20100
C786        C  0.92292900  0.63652750  0.40995450    -0.12400
C787        C  0.89229027  0.62108963  0.38942404     0.13300
C788        C  0.86365985  0.58735966  0.39871821    -0.22800
C789        C  0.89744318  0.56657140  0.48091347    -0.05900
H790        H  0.94704953  0.63070576  0.45564760     0.14800
C791        C  0.89052500  0.63895345  0.35694579    -0.16100
H792        H  0.84050108  0.57460409  0.38264769     0.09200
H793        H  0.84344585  0.44199981  0.40034758     0.07000
H794        H  0.79572230  0.41644771  0.40002474     0.08200
H795        H  0.82058984  0.41554996  0.43673129     0.07300
H796        H  0.79930852  0.57457518  0.44695045     0.02100
H797        H  0.82472870  0.57776400  0.48438547     0.02600
H798        H  0.77703018  0.55014120  0.48428017     0.06100
H799        H  0.92269666  0.58304876  0.49456887     0.05100
H800        H  0.89635928  0.53937941  0.47455060    -0.00700
H801        H  0.87485757  0.56250918  0.49811281     0.00800
H802        H  0.91289266  0.64165250  0.33998806     0.04500
H803        H  0.89234161  0.66664127  0.36229641     0.06400
H804        H  0.86509352  0.62255592  0.34352351     0.07300
C805        C  0.72930484  0.59488541  0.60902847    -0.22300
C806        C  0.72171114  0.58347852  0.57539066     0.09600
C807        C  0.71947661  0.60759730  0.55139050     0.10000
C808        C  0.72332071  0.64220843  0.56192393    -0.17300
C809        C  0.72903717  0.65307034  0.59591875    -0.27700
C810        C  0.73248874  0.62927301  0.61980217     0.18400
C811        C  0.71165409  0.54470734  0.56655377     0.12300
C812        C  0.71197964  0.59631586  0.51489666    -0.12000
H813        H  0.72048293  0.66041066  0.54373683     0.12600
C814        C  0.73680320  0.63776830  0.65700568    -0.22900
H815        H  0.73062538  0.57594789  0.62734106     0.08300
C816        C  0.73721520  0.53256031  0.55732865     0.04600
C817        C  0.72564411  0.49571846  0.54747009    -0.20100
C818        C  0.68902273  0.47080424  0.54653191    -0.12400
C819        C  0.66357008  0.48306616  0.55695181     0.13300
C820        C  0.67532199  0.51990747  0.56676633    -0.22800
C821        C  0.77652284  0.55850536  0.55788625    -0.05900
H822        H  0.74536559  0.48645702  0.54019529     0.14800
C823        C  0.62415819  0.45753207  0.55889373    -0.16100
H824        H  0.65602866  0.52966700  0.57439362     0.09200
H825        H  0.76279662  0.63968959  0.66534775     0.07000
H826        H  0.71496271  0.61533894  0.67110531     0.08200
H827        H  0.73557026  0.66364574  0.66383216     0.07300
H828        H  0.68567631  0.57180917  0.51261413     0.02100
H829        H  0.73311122  0.58951710  0.50449893     0.02600
H830        H  0.71138661  0.61863192  0.49942791     0.06100
H831        H  0.79299039  0.54466790  0.54954516     0.05100
H832        H  0.78449296  0.56916218  0.58389259    -0.00700
H833        H  0.78234065  0.58202407  0.54085976     0.00800
H834        H  0.60883290  0.47132110  0.57026410     0.04500
H835        H  0.61950244  0.43344995  0.57476393     0.06400
H836        H  0.61347667  0.44819578  0.53325356     0.07300
C837        C  0.84863762  0.99982535  0.10983087    -0.22300
C838        C  0.84321996  0.97571295  0.13653205     0.09600
C839        C  0.80834368  0.94907347  0.14471412     0.10000
C840        C  0.77936511  0.94786034  0.12641085    -0.17300
C841        C  0.78462626  0.97297899  0.10047598    -0.27700
C842        C  0.81982412  0.99853155  0.09137537     0.18400
C843        C  0.87449184  0.97937226  0.15595134     0.12300
C844        C  0.80169726  0.92273295  0.17332943    -0.12000
H845        H  0.75240128  0.92833296  0.13333718     0.12600
C846        C  0.82813392  0.02420811  0.06192430    -0.22900
H847        H  0.87559097  0.01978886  0.10333790     0.08300
C848        C  0.89380360  0.95970143  0.14690053     0.04600
C849        C  0.92216905  0.96277463  0.16720672    -0.20100
C850        C  0.93094622  0.98417512  0.19692587    -0.12400
C851        C  0.91549747  0.00865365  0.20217352     0.13300
C852        C  0.88630451  0.00467728  0.18267876    -0.22800
C853        C  0.88434836  0.93540833  0.11595839    -0.05900
H854        H  0.93697404  0.94792353  0.15977644     0.14800
C855        C  0.93091614  0.04107740  0.22587062    -0.16100
H856        H  0.87323583  0.02206186  0.18780829     0.09200
H857        H  0.84699354  0.01998757  0.04447508     0.07000
H858        H  0.84086407  0.05315422  0.07110615     0.08200
H859        H  0.80420701  0.01949826  0.04713162     0.07300
H860        H  0.81126627  0.93839158  0.19725299     0.02100
H861        H  0.81610697  0.90586469  0.16848236     0.02600
H862        H  0.77285163  0.90375066  0.17640773     0.06100
H863        H  0.90218293  0.92194709  0.11249896     0.05100
H864        H  0.88689068  0.95215159  0.09327240    -0.00700
H865        H  0.85646854  0.91352060  0.11808136     0.00800
H866        H  0.91139512  0.03819625  0.24621674     0.04500
H867        H  0.95628427  0.04439849  0.23680954     0.06400
H868        H  0.93707489  0.06668929  0.21175060     0.07300
C869        C  0.02349598  0.80884793  0.16451964    -0.22300
C870        C  0.00144512  0.81106053  0.19031038     0.09600
C871        C  0.97967402  0.77926597  0.20884933     0.10000
C872        C  0.98016256  0.74565729  0.20080053    -0.17300
C873        C  0.00219058  0.74317484  0.17482446    -0.27700
C874        C  0.02427677  0.77543069  0.15648277     0.18400
C875        C  0.00051010  0.84665984  0.19676767     0.12300
C876        C  0.95613423  0.78096690  0.23725133    -0.12000
H877        H  0.96342133  0.72123798  0.21500535     0.12600
C878        C  0.04754363  0.77488643  0.12732713    -0.22900
H879        H  0.03984116  0.83341668  0.15030578     0.08300
C880        C  0.02700486  0.87503781  0.21575156     0.04600
C881        C  0.02289258  0.90672114  0.22375331    -0.20100
C882        C  0.99227640  0.91024839  0.21435139    -0.12400
C883        C  0.96651808  0.88212374  0.19404910     0.13300
C884        C  0.97145212  0.85121947  0.18495384    -0.22800
C885        C  0.05895143  0.87135065  0.22848639    -0.05900
H886        H  0.04303049  0.92829518  0.23876882     0.14800
C887        C  0.93246566  0.88215841  0.18309348    -0.16100
H888        H  0.95135592  0.82941514  0.17002611     0.09200
H889        H  0.06104308  0.80208957  0.11484273     0.07000
H890        H  0.03088183  0.75459575  0.10815049     0.08200
H891        H  0.06882159  0.76796618  0.13616356     0.07300
H892        H  0.93603142  0.78913812  0.22743482     0.02100
H893        H  0.97263812  0.80149454  0.25637638     0.02600
H894        H  0.94166697  0.75395849  0.24987930     0.06100
H895        H  0.07642688  0.89547440  0.24408110     0.05100
H896        H  0.07495217  0.86904259  0.20685105    -0.00700
H897        H  0.05002467  0.84634296  0.24419086     0.00800
H898        H  0.90928845  0.85630477  0.19108185     0.04500
H899        H  0.93234326  0.88423626  0.15522821     0.06400
H900        H  0.92916505  0.90500655  0.19470656     0.07300
C901        C  0.12144127  0.15005804  0.12934936    -0.22300
C902        C  0.12991608  0.13168614  0.15480559     0.09600
C903        C  0.16623269  0.14271959  0.16216019     0.10000
C904        C  0.19305237  0.17121587  0.14351366    -0.17300
C905        C  0.18483538  0.18987620  0.11791345    -0.27700
C906        C  0.14821767  0.17905409  0.11098930     0.18400
C907        C  0.10051638  0.10032086  0.17277554     0.12300
C908        C  0.17680321  0.12499015  0.19022603    -0.12000
H909        H  0.22078397  0.17922775  0.14930922     0.12600
C910        C  0.13682522  0.19681207  0.08360556    -0.22900
H911        H  0.09357316  0.14131054  0.12355436     0.08300
C912        C  0.07712569  0.10567522  0.19578021     0.04600
C913        C  0.05063706  0.07519390  0.21260683    -0.20100
C914        C  0.04736823  0.03938195  0.20795481    -0.12400
C915        C  0.07073755  0.03411020  0.18471891     0.13300
C916        C  0.09641673  0.06444415  0.16707923    -0.22800
C917        C  0.08047950  0.14356625  0.20318037    -0.05900
H918        H  0.03236181  0.07938825  0.22970248     0.14800
C919        C  0.07063250  0.99741572  0.17874218    -0.16100
H920        H  0.11413199  0.06017963  0.14926006     0.09200
H921        H  0.14509021  0.22618217  0.08993630     0.07000
H922        H  0.10736515  0.18344817  0.08055755     0.08200
H923        H  0.14894983  0.19453511  0.05915191     0.07300
H924        H  0.16763710  0.09529705  0.18477328     0.02100
H925        H  0.16462568  0.12813190  0.21433874     0.02600
H926        H  0.20621866  0.13775717  0.19345101     0.06100
H927        H  0.06113366  0.14298941  0.22291622     0.05100
H928        H  0.07528129  0.15538227  0.18005805    -0.00700
H929        H  0.10780065  0.16176262  0.21220491     0.00800
H930        H  0.06344923  0.98861110  0.15217358     0.04500
H931        H  0.05182433  0.97585962  0.19544191     0.06400
H932        H  0.09762956  0.99977509  0.18366443     0.07300
C933        C  0.15803615  0.46293639  0.90109239    -0.22300
C934        C  0.13175336  0.44775552  0.92612188     0.09600
C935        C  0.13261073  0.46900087  0.95481540     0.10000
C936        C  0.16011382  0.50499001  0.95803772    -0.17300
C937        C  0.18717373  0.52024566  0.93338453    -0.27700
C938        C  0.18589029  0.49876619  0.90436144     0.18400
C939        C  0.10466522  0.40880683  0.92281533     0.12300
C940        C  0.10498843  0.45325474  0.98245109    -0.12000
H941        H  0.16104529  0.52093688  0.98045617     0.12600
C942        C  0.21469592  0.51230109  0.87757058    -0.22900
H943        H  0.15723948  0.44619157  0.87930652     0.08300
C944        C  0.07130512  0.39911133  0.90780014     0.04600
C945        C  0.04548867  0.36214419  0.90791476    -0.20100
C946        C  0.05245198  0.33451632  0.92218205    -0.12400
C947        C  0.08633162  0.34423685  0.93652913     0.13300
C948        C  0.11206649  0.38127172  0.93638015    -0.22800
C949        C  0.06297962  0.42779111  0.89180372    -0.05900
H950        H  0.01956183  0.35473442  0.89694644     0.14800
C951        C  0.09584083  0.31700125  0.95380946    -0.16100
H952        H  0.13777759  0.38895271  0.94795243     0.09200
H953        H  0.21028210  0.49102071  0.85789515     0.07000
H954        H  0.21492031  0.53656023  0.86483898     0.08200
H955        H  0.24109985  0.51968193  0.88906502     0.07300
H956        H  0.10587416  0.42851519  0.99306957     0.02100
H957        H  0.07797741  0.44537487  0.97222311     0.02600
H958        H  0.10964285  0.47337884  0.00328888     0.06100
H959        H  0.03566331  0.41553960  0.88113518     0.05100
H960        H  0.08234272  0.44136394  0.87104709    -0.00700
H961        H  0.06486375  0.44885464  0.91082625     0.00800
H962        H  0.11866165  0.31560838  0.94035949     0.04500
H963        H  0.07356180  0.28890471  0.95494884     0.06400
H964        H  0.10382080  0.32622647  0.98016884     0.07300
C965        C  0.25784747  0.35504200  0.01016364    -0.22300
C966        C  0.25554515  0.38049873  0.03301016     0.09600
C967        C  0.24313400  0.36917812  0.06619177     0.10000
C968        C  0.23477327  0.33301018  0.07619382    -0.17300
C969        C  0.23904982  0.30812545  0.05382930    -0.27700
C970        C  0.24969515  0.31905055  0.02007092     0.18400
C971        C  0.26755034  0.41918914  0.02194076     0.12300
C972        C  0.24014442  0.39578468  0.09134342    -0.12000
H973        H  0.22713837  0.32494329  0.10213409     0.12600
C974        C  0.25312835  0.29350886  0.99390184    -0.22900
H975        H  0.26687651  0.36358619  0.98456744     0.08300
C976        C  0.30365261  0.44563840  0.02432913     0.04600
C977        C  0.31384536  0.48200540  0.01388526    -0.20100
C978        C  0.28869581  0.49271690  0.00141871    -0.12400
C979        C  0.25258878  0.46585408  0.99830641     0.13300
C980        C  0.24256168  0.42945834  0.00852891    -0.22800
C981        C  0.33134361  0.43548488  0.03821295    -0.05900
H982        H  0.34143474  0.50240886  0.01625012     0.14800
C983        C  0.22466019  0.47502479  0.98331822    -0.16100
H984        H  0.21502015  0.40888922  0.00626222     0.09200
H985        H  0.28147680  0.30415221  0.98577609     0.07000
H986        H  0.23671049  0.29208285  0.97168780     0.08200
H987        H  0.24369641  0.26500735  0.00312018     0.07300
H988        H  0.22124355  0.40585844  0.08198196     0.02100
H989        H  0.26672034  0.41958115  0.09499085     0.02600
H990        H  0.23027074  0.38272092  0.11622562     0.06100
H991        H  0.35822476  0.45940969  0.03866696     0.05100
H992        H  0.33294847  0.41354217  0.02233125    -0.00700
H993        H  0.32401321  0.42532513  0.06438665     0.00800
H994        H  0.19858189  0.45024424  0.98062181     0.04500
H995        H  0.23349693  0.48695356  0.95788220     0.06400
H996        H  0.22016818  0.49490962  0.99973990     0.07300
C997        C  0.34953062  0.86924561  0.93018247    -0.22300
C998        C  0.34478630  0.87052736  0.89545121     0.09600
C999        C  0.35172724  0.84678643  0.87353200     0.10000
C1000       C  0.36082715  0.82034019  0.88721897    -0.17300
C1001       C  0.36283712  0.81720938  0.92226716    -0.27700
C1002       C  0.35870763  0.84307942  0.94386622     0.18400
C1003       C  0.33212627  0.89691096  0.88324042     0.12300
C1004       C  0.34779755  0.84821562  0.83600276    -0.12000
H1005       H  0.36372498  0.80034026  0.87069287     0.12600
C1006       C  0.36322865  0.84339400  0.98151309    -0.22900
H1007       H  0.34519726  0.88830734  0.94684028     0.08300
C1008       C  0.29628887  0.89047253  0.88789837     0.04600
C1009       C  0.28684778  0.91895469  0.88175003    -0.20100
C1010       C  0.31258332  0.95379909  0.87153007    -0.12400
C1011       C  0.34787257  0.95913507  0.86418022     0.13300
C1012       C  0.35714559  0.93054058  0.87022222    -0.22800
C1013       C  0.26824448  0.85383136  0.90011481    -0.05900
H1014       H  0.25974009  0.91462179  0.88684798     0.14800
C1015       C  0.37594082  0.99471388  0.84987055    -0.16100
H1016       H  0.38445114  0.93496223  0.86622497     0.09200
H1017       H  0.33737742  0.83699140  0.99432321     0.07000
H1018       H  0.38329512  0.87113381  0.98973029     0.08200
H1019       H  0.37280324  0.82337798  0.98975316     0.07300
H1020       H  0.36671605  0.87576076  0.82649004     0.02100
H1021       H  0.32008448  0.84302179  0.83007474     0.02600
H1022       H  0.35351180  0.82724411  0.82252980     0.06100
H1023       H  0.24145561  0.85320136  0.90173659     0.05100
H1024       H  0.27512387  0.84808664  0.92555887    -0.00700
H1025       H  0.26663322  0.83175051  0.88239612     0.00800
H1026       H  0.38353947  0.01728505  0.86872007     0.04500
H1027       H  0.36565847  0.00189814  0.82688217     0.06400
H1028       H  0.40067697  0.99249160  0.84272429     0.07300
C1029       C  0.18503229  0.67824253  0.10149061    -0.22300
C1030       C  0.14987800  0.65624069  0.09134597     0.09600
C1031       C  0.14299586  0.63019770  0.06506646     0.10000
C1032       C  0.17177639  0.62826774  0.04817703    -0.17300
C1033       C  0.20704782  0.65149326  0.05733544    -0.27700
C1034       C  0.21373481  0.67559764  0.08530725     0.18400
C1035       C  0.12076331  0.66179548  0.10779421     0.12300
C1036       C  0.10537495  0.60450113  0.05489074    -0.12000
H1037       H  0.16679936  0.60949627  0.02700716     0.12600
C1038       C  0.25057540  0.69812357  0.09929428    -0.22900
H1039       H  0.19010210  0.69766955  0.12213484     0.08300
C1040       C  0.10881560  0.64938860  0.14078589     0.04600
C1041       C  0.08006020  0.65414683  0.15455611    -0.20100
C1042       C  0.06312519  0.67077530  0.13587199    -0.12400
C1043       C  0.07523352  0.68330101  0.10287024     0.13300
C1044       C  0.10440000  0.67927344  0.08952109    -0.22800
C1045       C  0.12562423  0.63014024  0.16092699    -0.05900
H1046       H  0.07027513  0.64422175  0.17967743     0.14800
C1047       C  0.05711239  0.69941903  0.08042054    -0.16100
H1048       H  0.11375058  0.68875596  0.06418222     0.09200
H1049       H  0.25068384  0.69147180  0.12634566     0.07000
H1050       H  0.25793302  0.72788124  0.09705157     0.08200
H1051       H  0.27131421  0.69247406  0.08647051     0.07300
H1052       H  0.09164196  0.62042424  0.04553402     0.02100
H1053       H  0.09043891  0.58795532  0.07694816     0.02600
H1054       H  0.10486011  0.58521664  0.03453895     0.06100
H1055       H  0.11242955  0.62139580  0.18592394     0.05100
H1056       H  0.15424504  0.64888227  0.16520732    -0.00700
H1057       H  0.12331795  0.60525682  0.14703718     0.00800
H1058       H  0.07598580  0.72828210  0.07424360     0.04500
H1059       H  0.03274578  0.69914776  0.09189264     0.06400
H1060       H  0.04893627  0.68312500  0.05667080     0.07300
C1061       C  0.55701741  0.80582336  0.99148634    -0.22300
C1062       C  0.56229535  0.82975138  0.01894844     0.09600
C1063       C  0.53244379  0.82963369  0.03608131     0.10000
C1064       C  0.49795568  0.80492428  0.02580458    -0.17300
C1065       C  0.49251518  0.78078623  0.99842525    -0.27700
C1066       C  0.52249749  0.78111151  0.98106498     0.18400
C1067       C  0.59915347  0.85692195  0.02755902     0.12300
C1068       C  0.53691158  0.85604160  0.06476320    -0.12000
H1069       H  0.47497727  0.80443223  0.03920313     0.12600
C1070       C  0.51933805  0.75508274  0.95239766    -0.22900
H1071       H  0.58004853  0.80631979  0.97818858     0.08300
C1072       C  0.61816683  0.85177378  0.05448465     0.04600
C1073       C  0.65139406  0.88057516  0.06364113    -0.20100
C1074       C  0.66626543  0.91380224  0.04575742    -0.12400
C1075       C  0.64870627  0.91711827  0.01663722     0.13300
C1076       C  0.61500608  0.88907118  0.00850358    -0.22800
C1077       C  0.60345529  0.81600148  0.07338283    -0.05900
H1078       H  0.66506845  0.87768451  0.08556292     0.14800
C1079       C  0.66493989  0.94950378  0.99315393    -0.16100
H1080       H  0.60088303  0.89233985  0.98708819     0.09200
H1081       H  0.53332934  0.73840334  0.95900710     0.07000
H1082       H  0.53199120  0.77107205  0.92934928     0.08200
H1083       H  0.49139950  0.73571920  0.94647414     0.07300
H1084       H  0.55193277  0.88479808  0.05586197     0.02100
H1085       H  0.55174138  0.85143141  0.08563487     0.02600
H1086       H  0.51074543  0.85258623  0.07495966     0.06100
H1087       H  0.62182407  0.81651176  0.09353701     0.05100
H1088       H  0.59967838  0.79320352  0.05563134    -0.00700
H1089       H  0.57738634  0.81031732  0.08525078     0.00800
H1090       H  0.66476052  0.93938353  0.96697576     0.04500
H1091       H  0.69313141  0.96828393  0.99902818     0.06400
H1092       H  0.64900907  0.96523315  0.99413207     0.07300
C1093       C  0.57734455  0.68000654  0.82010450    -0.22300
C1094       C  0.57400534  0.70337056  0.84464733     0.09600
C1095       C  0.60484580  0.73240207  0.85825919     0.10000
C1096       C  0.63853811  0.73535743  0.84917677    -0.17300
C1097       C  0.64162247  0.70945206  0.82735863    -0.27700
C1098       C  0.61092137  0.68287658  0.81108109     0.18400
C1099       C  0.53826147  0.69381288  0.85897665     0.12300
C1100       C  0.60201411  0.75894917  0.88362833    -0.12000
H1101       H  0.66213307  0.75564954  0.86165540     0.12600
C1102       C  0.61273734  0.65623585  0.78519655    -0.22900
H1103       H  0.55353424  0.65815308  0.80930652     0.08300
C1104       C  0.51413128  0.70413957  0.84344246     0.04600
C1105       C  0.48072509  0.69454890  0.85866437    -0.20100
C1106       C  0.47091979  0.67456897  0.88887377    -0.12400
C1107       C  0.49514608  0.66382818  0.90413729     0.13300
C1108       C  0.52849999  0.67353137  0.88884859    -0.22800
C1109       C  0.52395741  0.72577590  0.81124204    -0.05900
H1110       H  0.46229684  0.70306516  0.84715885     0.14800
C1111       C  0.48684891  0.64373826  0.93724017    -0.16100
H1112       H  0.54739510  0.66572612  0.90046003     0.09200
H1113       H  0.59985401  0.65840141  0.76160972     0.07000
H1114       H  0.59840397  0.62769469  0.79482147     0.08200
H1115       H  0.64058883  0.66190801  0.77872810     0.07300
H1116       H  0.58718756  0.74391346  0.90636742     0.02100
H1117       H  0.58762958  0.77333144  0.87234399     0.02600
H1118       H  0.62873343  0.78004031  0.89168978     0.06100
H1119       H  0.50206639  0.73187430  0.80254685     0.05100
H1120       H  0.52963454  0.70982735  0.79109958    -0.00700
H1121       H  0.54806754  0.75230177  0.81524394     0.00800
H1122       H  0.46373864  0.61624078  0.93432471     0.04500
H1123       H  0.48069892  0.65992820  0.95682369     0.06400
H1124       H  0.50970891  0.63941347  0.94620545     0.07300
C1125       C  0.46957036  0.16483800  0.92728754    -0.22300
C1126       C  0.44017506  0.17133950  0.93527039     0.09600
C1127       C  0.44515168  0.20367529  0.95280829     0.10000
C1128       C  0.47975660  0.22865376  0.96259049    -0.17300
C1129       C  0.50911340  0.22150308  0.95561788    -0.27700
C1130       C  0.50406906  0.18958257  0.93715527     0.18400
C1131       C  0.40455353  0.14283674  0.92555693     0.12300
C1132       C  0.41402399  0.21143799  0.96159110    -0.12000
H1133       H  0.48378748  0.25328628  0.97662498     0.12600
C1134       C  0.53495874  0.18189077  0.92709054    -0.22900
H1135       H  0.46533736  0.13999836  0.91349907     0.08300
C1136       C  0.39092491  0.14204992  0.89310289     0.04600
C1137       C  0.36007044  0.11102441  0.88285057    -0.20100
C1138       C  0.34367674  0.08039330  0.90390233    -0.12400
C1139       C  0.35664659  0.08177782  0.93688208     0.13300
C1140       C  0.38682533  0.11322020  0.94739458    -0.22800
C1141       C  0.41015828  0.17295952  0.86870091    -0.05900
H1142       H  0.35029573  0.10954578  0.85744507     0.14800
C1143       C  0.33985918  0.05031270  0.96127896    -0.16100
H1144       H  0.39766119  0.11390616  0.97220898     0.09200
H1145       H  0.52628076  0.15692931  0.91086470     0.07000
H1146       H  0.54738119  0.17715357  0.94981016     0.08200
H1147       H  0.55508485  0.20555028  0.91276829     0.07300
H1148       H  0.39463900  0.18908778  0.97766990     0.02100
H1149       H  0.40051670  0.21300588  0.93823528     0.02600
H1150       H  0.42265358  0.23790101  0.97555172     0.06100
H1151       H  0.39613407  0.16776881  0.84421383     0.05100
H1152       H  0.43752884  0.17600869  0.86378181    -0.00700
H1153       H  0.41194768  0.19910413  0.87941223     0.00800
H1154       H  0.35936132  0.03968615  0.96736373     0.04500
H1155       H  0.31535818  0.02720915  0.95137561     0.06400
H1156       H  0.33231593  0.06022589  0.98487334     0.07300
C1157       C  0.44209683  0.31166669  0.05247933    -0.22300
C1158       C  0.42093548  0.27402052  0.05832237     0.09600
C1159       C  0.43683000  0.24987117  0.05785392     0.10000
C1160       C  0.47385517  0.26415196  0.05257641    -0.17300
C1161       C  0.49520002  0.30193611  0.04712387    -0.27700
C1162       C  0.47907623  0.32598940  0.04681638     0.18400
C1163       C  0.38209139  0.26063065  0.06441085     0.12300
C1164       C  0.41468462  0.20914503  0.06290634    -0.12000
H1165       H  0.48624202  0.24570448  0.05246359     0.12600
C1166       C  0.50002740  0.36689573  0.04168360    -0.22900
H1167       H  0.42967074  0.33007598  0.05264999     0.08300
C1168       C  0.36813762  0.26103643  0.09695390     0.04600
C1169       C  0.33159752  0.25151803  0.10089931    -0.20100
C1170       C  0.30896068  0.24207269  0.07295168    -0.12400
C1171       C  0.32272520  0.23997565  0.04062209     0.13300
C1172       C  0.35912054  0.24923989  0.03677987    -0.22800
C1173       C  0.39207301  0.27276814  0.12724415    -0.05900
H1174       H  0.32114291  0.25369131  0.12554598     0.14800
C1175       C  0.29983774  0.22865694  0.00959127    -0.16100
H1176       H  0.36987186  0.24856210  0.01188639     0.09200
H1177       H  0.49605253  0.38172366  0.06382233     0.07000
H1178       H  0.49033320  0.37496641  0.01881360     0.08200
H1179       H  0.52911329  0.37610724  0.03869300     0.07300
H1180       H  0.39402534  0.19787099  0.04308154     0.02100
H1181       H  0.40137460  0.20408067  0.08800988     0.02600
H1182       H  0.43123877  0.19407909  0.06148085     0.06100
H1183       H  0.37695218  0.27168724  0.15078062     0.05100
H1184       H  0.41308841  0.30145090  0.12397196    -0.00700
H1185       H  0.40492252  0.25426569  0.13018674     0.00800
H1186       H  0.30962256  0.25177790  0.99145905     0.04500
H1187       H  0.27129315  0.22053314  0.01525592     0.06400
H1188       H  0.30151276  0.20463796  0.99749980     0.07300
C1189       C  0.66053520  0.52795697  0.94977477    -0.22300
C1190       C  0.66194464  0.52616614  0.91459916     0.09600
C1191       C  0.65347819  0.49220902  0.89829945     0.10000
C1192       C  0.64378155  0.46054597  0.91786303    -0.17300
C1193       C  0.64360147  0.46257794  0.95322154    -0.27700
C1194       C  0.65153622  0.49662120  0.96935676     0.18400
C1195       C  0.67161193  0.56033984  0.89560130     0.12300
C1196       C  0.65654973  0.48981330  0.86053659    -0.12000
H1197       H  0.63860840  0.43462835  0.90561971     0.12600
C1198       C  0.65083882  0.50094345  0.00713405    -0.22900
H1199       H  0.66670860  0.55411791  0.96204804     0.08300
C1200       C  0.64503216  0.56854209  0.88251570     0.04600
C1201       C  0.65510014  0.60187816  0.86592867    -0.20100
C1202       C  0.69112453  0.62872578  0.86378338    -0.12400
C1203       C  0.71780228  0.62056103  0.87788550     0.13300
C1204       C  0.70758392  0.58616205  0.89315062    -0.22800
C1205       C  0.60587657  0.54302567  0.88763128    -0.05900
H1206       H  0.63408451  0.60726254  0.85564187     0.14800
C1207       C  0.75676859  0.64778237  0.87812803    -0.16100
H1208       H  0.72763891  0.57967123  0.90415179     0.09200
H1209       H  0.63268782  0.51328847  0.01399549     0.07000
H1210       H  0.67812527  0.51947154  0.01608804     0.08200
H1211       H  0.64099988  0.47444758  0.02064089     0.07300
H1212       H  0.68441528  0.50781148  0.85239573     0.02100
H1213       H  0.63838964  0.49883081  0.84788650     0.02600
H1214       H  0.64959084  0.46126809  0.85199428     0.06100
H1215       H  0.58856243  0.55411553  0.87636596     0.05100
H1216       H  0.59965980  0.53931179  0.91502480    -0.00700
H1217       H  0.59896683  0.51579301  0.87590255     0.00800
H1218       H  0.77331467  0.63650004  0.89061771     0.04500
H1219       H  0.76041404  0.67299202  0.89225992     0.06400
H1220       H  0.76691671  0.65483676  0.85190718     0.07300
C1221       C  0.84165536  0.30748140  0.96064969    -0.22300
C1222       C  0.83949511  0.27605701  0.97683602     0.09600
C1223       C  0.81204528  0.25791905  0.00069060     0.10000
C1224       C  0.78696431  0.27140421  0.00739798    -0.17300
C1225       C  0.78886750  0.30265594  0.99087087    -0.27700
C1226       C  0.81698161  0.32132743  0.96764400     0.18400
C1227       C  0.86781203  0.26442444  0.96959977     0.12300
C1228       C  0.80897883  0.22417569  0.01865422    -0.12000
H1229       H  0.76535341  0.25709404  0.02516847     0.12600
C1230       C  0.82274504  0.35668673  0.95089714    -0.22900
H1231       H  0.86331373  0.32180998  0.94292375     0.08300
C1232       C  0.86798287  0.24517206  0.93974813     0.04600
C1233       C  0.89829798  0.24006875  0.93146237    -0.20100
C1234       C  0.92855474  0.25453700  0.95212172    -0.12400
C1235       C  0.92716126  0.27142488  0.98320087     0.13300
C1236       C  0.89689650  0.27634930  0.99141555    -0.22800
C1237       C  0.83673628  0.23133729  0.91614411    -0.05900
H1238       H  0.89933767  0.22711082  0.90767887     0.14800
C1239       C  0.95736913  0.28508664  0.00805683    -0.16100
H1240       H  0.89649606  0.29077641  0.01450124     0.09200
H1241       H  0.81959495  0.35228188  0.92322977     0.07000
H1242       H  0.85021058  0.37821264  0.95615824     0.08200
H1243       H  0.80417025  0.36751020  0.96016358     0.07300
H1244       H  0.83339622  0.23107084  0.03360636     0.02100
H1245       H  0.80580330  0.20237264  0.99994288     0.02600
H1246       H  0.78559993  0.21303280  0.03610674     0.06100
H1247       H  0.84098538  0.21657677  0.89408366     0.05100
H1248       H  0.83271990  0.25480826  0.90665991    -0.00700
H1249       H  0.81221073  0.21205017  0.92968318     0.00800
H1250       H  0.96895787  0.31551747  0.01032744     0.04500
H1251       H  0.97889648  0.27744556  0.00088330     0.06400
H1252       H  0.94702760  0.27279542  0.03311435     0.07300
C1253       C  0.85313969  0.48327633  0.10269079    -0.22300
C1254       C  0.84652766  0.50465243  0.12733618     0.09600
C1255       C  0.81125724  0.49392766  0.13880834     0.10000
C1256       C  0.78317114  0.46306322  0.12420114    -0.17300
C1257       C  0.78951184  0.44244950  0.09852927    -0.27700
C1258       C  0.82507968  0.45245140  0.08789157     0.18400
C1259       C  0.87632009  0.54023855  0.13792054     0.12300
C1260       C  0.80327629  0.51538434  0.16611884    -0.12000
H1261       H  0.75590368  0.45561832  0.13209642     0.12600
C1262       C  0.83438269  0.43297089  0.05961375    -0.22900
H1263       H  0.88027169  0.49179272  0.09374080     0.08300
C1264       C  0.90231665  0.54219272  0.16112265     0.04600
C1265       C  0.93109144  0.57653060  0.16845319    -0.20100
C1266       C  0.93489171  0.60887658  0.15258466    -0.12400
C1267       C  0.90897810  0.60667206  0.12888822     0.13300
C1268       C  0.87964104  0.57253043  0.12256516    -0.22800
C1269       C  0.89998785  0.50800454  0.17762244    -0.05900
H1270       H  0.95141965  0.57800914  0.18587928     0.14800
C1271       C  0.91245766  0.63876955  0.10779925    -0.16100
H1272       H  0.85997613  0.57075414  0.10419647     0.09200
H1273       H  0.85198931  0.42140915  0.06928998     0.07000
H1274       H  0.84884074  0.45293248  0.03937397     0.08200
H1275       H  0.81078747  0.41022271  0.04808096     0.07300
H1276       H  0.81169837  0.54410618  0.15784960     0.02100
H1277       H  0.81795433  0.51568695  0.18930474     0.02600
H1278       H  0.77432389  0.50305527  0.17239990     0.06100
H1279       H  0.92236570  0.51438361  0.19530528     0.05100
H1280       H  0.90104281  0.48864866  0.15811170    -0.00700
H1281       H  0.87451040  0.49440629  0.19200058     0.00800
H1282       H  0.91232843  0.63154782  0.08068042     0.04500
H1283       H  0.93733987  0.66420369  0.11220198     0.06400
H1284       H  0.88945746  0.64478470  0.11303580     0.07300
C1285       C  0.69865767  0.15035718  0.03609324    -0.22300
C1286       C  0.70003432  0.13968777  0.06919983     0.09600
C1287       C  0.69532439  0.15968071  0.09650675     0.10000
C1288       C  0.68929061  0.19028462  0.09000946    -0.17300
C1289       C  0.68723590  0.20059344  0.05684546    -0.27700
C1290       C  0.69237244  0.18066580  0.02945711     0.18400
C1291       C  0.70531416  0.10662126  0.07430763     0.12300
C1292       C  0.69594554  0.14820969  0.13231439    -0.12000
H1293       H  0.68511805  0.20556889  0.11080909     0.12600
C1294       C  0.69212170  0.19081324  0.99301955    -0.22900
H1295       H  0.70238506  0.13477314  0.01528015     0.08300
C1296       C  0.67627673  0.07136948  0.07321516     0.04600
C1297       C  0.68270779  0.04050250  0.07475571    -0.20100
C1298       C  0.71758716  0.04382370  0.07719992    -0.12400
C1299       C  0.74667533  0.07960948  0.07980667     0.13300
C1300       C  0.74001549  0.11054034  0.07809191    -0.22800
C1301       C  0.63850280  0.06632411  0.06996013    -0.05900
H1302       H  0.66008926  0.01348913  0.07359557     0.14800
C1303       C  0.78479193  0.08594410  0.08327422    -0.16100
H1304       H  0.76202387  0.13801440  0.07896565     0.09200
H1305       H  0.66953487  0.16821555  0.97988449     0.07000
H1306       H  0.71751645  0.19475792  0.98058766     0.08200
H1307       H  0.68978771  0.21668898  0.98974086     0.07300
H1308       H  0.72230102  0.14914048  0.13763790     0.02100
H1309       H  0.67471659  0.11974809  0.13619237     0.02600
H1310       H  0.69133913  0.16660353  0.15064390     0.06100
H1311       H  0.61887955  0.03677483  0.06963417     0.05100
H1312       H  0.63572052  0.07882768  0.04616024    -0.00700
H1313       H  0.63176665  0.07977251  0.09158630     0.00800
H1314       H  0.80367654  0.11573063  0.08422377     0.04500
H1315       H  0.79240840  0.07376741  0.06127587     0.06400
H1316       H  0.78795494  0.07358722  0.10700918     0.07300
C1317       C  0.88009130  0.88311308  0.83111177    -0.22300
C1318       C  0.87611855  0.84900704  0.81877976     0.09600
C1319       C  0.90305698  0.84746308  0.79809568     0.10000
C1320       C  0.93235093  0.88031891  0.78850941    -0.17300
C1321       C  0.93485422  0.91484339  0.79823839    -0.27700
C1322       C  0.90909870  0.91613564  0.82111020     0.18400
C1323       C  0.84101859  0.81643985  0.82273404     0.12300
C1324       C  0.89992555  0.81122839  0.78478935    -0.12000
H1325       H  0.95217729  0.87919009  0.77127226     0.12600
C1326       C  0.90970756  0.95145131  0.83381012    -0.22900
H1327       H  0.85922749  0.88411876  0.84699293     0.08300
C1328       C  0.83158076  0.79386789  0.85146769     0.04600
C1329       C  0.79741962  0.76385628  0.85347924    -0.20100
C1330       C  0.77235419  0.75657923  0.82772745    -0.12400
C1331       C  0.78216921  0.77911362  0.79876353     0.13300
C1332       C  0.81646360  0.80854243  0.79662922    -0.22800
C1333       C  0.85743238  0.80154498  0.87988670    -0.05900
H1334       H  0.78991746  0.74658244  0.87563301     0.14800
C1335       C  0.75709358  0.77191874  0.76962791    -0.16100
H1336       H  0.82426844  0.82581432  0.77450764     0.09200
H1337       H  0.90977912  0.95179486  0.86179222     0.07000
H1338       H  0.88556663  0.95345178  0.82501513     0.08200
H1339       H  0.93343512  0.97599375  0.82525052     0.07300
H1340       H  0.87574808  0.79764007  0.76897248     0.02100
H1341       H  0.89790878  0.79302265  0.80617373     0.02600
H1342       H  0.92345001  0.81488356  0.76909197     0.06100
H1343       H  0.84580505  0.78119209  0.90047227     0.05100
H1344       H  0.86471169  0.82937726  0.89056016    -0.00700
H1345       H  0.88193655  0.80027240  0.87038378     0.00800
H1346       H  0.73388830  0.77654938  0.77753772     0.04500
H1347       H  0.74769455  0.74316670  0.76046495     0.06400
H1348       H  0.77028841  0.79058177  0.74817803     0.07300
C1349       C  0.96703695  0.08599133  0.82506870    -0.22300
C1350       C  0.99853213  0.10693947  0.84273812     0.09600
C1351       C  0.02640787  0.09636014  0.84183271     0.10000
C1352       C  0.02230672  0.06529485  0.82273494    -0.17300
C1353       C  0.99116651  0.04492901  0.80420748    -0.27700
C1354       C  0.96284317  0.05499777  0.80601792     0.18400
C1355       C  0.00175136  0.14037409  0.86114497     0.12300
C1356       C  0.06071150  0.11836114  0.86032965    -0.12000
H1357       H  0.04398440  0.05759562  0.82128923     0.12600
C1358       C  0.92767102  0.03348654  0.78870770    -0.22900
H1359       H  0.94555918  0.09402510  0.82606059     0.08300
C1360       C  0.01160411  0.17390427  0.84420166     0.04600
C1361       C  0.01171717  0.20417593  0.86183608    -0.20100
C1362       C  0.00140286  0.20148474  0.89589062    -0.12400
C1363       C  0.99268170  0.16819474  0.91320456     0.13300
C1364       C  0.99282626  0.13799811  0.89551819    -0.22800
C1365       C  0.02131844  0.17744547  0.80732332    -0.05900
H1366       H  0.01855667  0.22968744  0.84861496     0.14800
C1367       C  0.98380703  0.16372018  0.95032338    -0.16100
H1368       H  0.98554465  0.11227909  0.90853888     0.09200
H1369       H  0.92380831  0.05093898  0.76944643     0.07000
H1370       H  0.90562482  0.02507498  0.80755956     0.08200
H1371       H  0.92576688  0.00808485  0.77640952     0.07300
H1372       H  0.05509376  0.11863878  0.88773046     0.02100
H1373       H  0.07346048  0.14706719  0.85093129     0.02600
H1374       H  0.07991838  0.10657211  0.85668858     0.06100
H1375       H  0.02854753  0.20555286  0.79789423     0.05100
H1376       H  0.99833330  0.15763736  0.79245234    -0.00700
H1377       H  0.04453152  0.17152025  0.80315091     0.00800
H1378       H  0.95597036  0.14216472  0.95401630     0.04500
H1379       H  0.98656631  0.18945496  0.96271961     0.06400
H1380       H  0.00222387  0.15511159  0.96319460     0.07300
C1381       C  0.09436259  0.96718765  0.83029564    -0.22300
C1382       C  0.12565837  0.99858214  0.82168817     0.09600
C1383       C  0.12335508  0.02614673  0.80196135     0.10000
C1384       C  0.09008853  0.02033291  0.78945061    -0.17300
C1385       C  0.05901751  0.98775611  0.79611708    -0.27700
C1386       C  0.06095425  0.96151371  0.81805168     0.18400
C1387       C  0.16035649  0.00115680  0.83285041     0.12300
C1388       C  0.15527841  0.06194673  0.79371055    -0.12000
H1389       H  0.08850035  0.04103945  0.77350113     0.12600
C1390       C  0.02891797  0.92665426  0.82812543    -0.22900
H1391       H  0.09614234  0.94651806  0.84613311     0.08300
C1392       C  0.17712460  0.02050378  0.86231049     0.04600
C1393       C  0.21014470  0.02230366  0.87149646    -0.20100
C1394       C  0.22719937  0.00570338  0.85163077    -0.12400
C1395       C  0.21042981  0.98678995  0.82163661     0.13300
C1396       C  0.17682451  0.98402607  0.81323481    -0.22800
C1397       C  0.16012070  0.03918385  0.88399355    -0.05900
H1398       H  0.22273130  0.03680311  0.89443834     0.14800
C1399       C  0.22750019  0.97091194  0.79673478    -0.16100
H1400       H  0.16376258  0.96920732  0.79057759     0.09200
H1401       H  0.02526259  0.92642352  0.85590435     0.07000
H1402       H  0.03315498  0.90245823  0.82056768     0.08200
H1403       H  0.00401228  0.92356185  0.81635101     0.07300
H1404       H  0.15699680  0.06655517  0.76617694     0.02100
H1405       H  0.18083872  0.06288031  0.80203388     0.02600
H1406       H  0.15203897  0.08494049  0.80614065     0.06100
H1407       H  0.17656708  0.05279043  0.90639162     0.05100
H1408       H  0.13347359  0.01858499  0.89293019    -0.00700
H1409       H  0.15693360  0.06051737  0.86919641     0.00800
H1410       H  0.21180989  0.94049613  0.79579135     0.04500
H1411       H  0.25559991  0.97795557  0.80235171     0.06400
H1412       H  0.22759187  0.98202845  0.77128037     0.07300
C1413       C  0.90241051  0.87496705  0.68124240    -0.22300
C1414       C  0.86827738  0.87052765  0.69023724     0.09600
C1415       C  0.86437089  0.89287702  0.71584404     0.10000
C1416       C  0.89482950  0.91868742  0.73242039    -0.17300
C1417       C  0.92917334  0.92274196  0.72405656    -0.27700
C1418       C  0.93292992  0.90070996  0.69775596     0.18400
C1419       C  0.83703031  0.83977380  0.67473673     0.12300
C1420       C  0.82809973  0.88920072  0.72592847    -0.12000
H1421       H  0.89182266  0.93560920  0.75238449     0.12600
C1422       C  0.96807959  0.90194023  0.68727308    -0.22900
H1423       H  0.90514901  0.85736743  0.66176413     0.08300
C1424       C  0.82131007  0.84409199  0.64497655     0.04600
C1425       C  0.79240557  0.81340849  0.63095257    -0.20100
C1426       C  0.77992717  0.77831151  0.64531784    -0.12400
C1427       C  0.79626295  0.77409715  0.67488201     0.13300
C1428       C  0.82425264  0.80500175  0.68944681    -0.22800
C1429       C  0.83558573  0.88080620  0.62771704    -0.05900
H1430       H  0.78015169  0.81659158  0.60813523     0.14800
C1431       C  0.78417625  0.73727383  0.69147850    -0.16100
H1432       H  0.83678000  0.80197901  0.71216239     0.09200
H1433       H  0.97331386  0.90928653  0.66022247     0.07000
H1434       H  0.96723603  0.87450696  0.69104926     0.08200
H1435       H  0.99053114  0.92210921  0.70180060     0.07300
H1436       H  0.81071128  0.86071954  0.73430407     0.02100
H1437       H  0.81551962  0.89551337  0.70413560     0.02600
H1438       H  0.82980795  0.90834459  0.74686605     0.06100
H1439       H  0.82035688  0.87941088  0.60460476     0.05100
H1440       H  0.86395473  0.88983528  0.62037004    -0.00700
H1441       H  0.83381655  0.90166008  0.64498131     0.00800
H1442       H  0.79003087  0.71861367  0.67461208     0.04500
H1443       H  0.75510200  0.72516139  0.69707135     0.06400
H1444       H  0.79828277  0.73960593  0.71555944     0.07300
C1445       C  0.97189012  0.16100536  0.70439853    -0.22300
C1446       C  0.98824180  0.14381182  0.68465023     0.09600
C1447       C  0.00353883  0.15880486  0.65318937     0.10000
C1448       C  0.00295902  0.19137294  0.64251874    -0.17300
C1449       C  0.98678191  0.20876880  0.66232576    -0.27700
C1450       C  0.97098551  0.19339049  0.69362229     0.18400
C1451       C  0.99040667  0.11109900  0.69832393     0.12300
C1452       C  0.02058613  0.14051770  0.63107416    -0.12000
H1453       H  0.01511519  0.20331646  0.61856488     0.12600
C1454       C  0.95470798  0.21194970  0.71638076    -0.22900
H1455       H  0.96045068  0.14937951  0.72865744     0.08300
C1456       C  0.01822404  0.11487736  0.72002218     0.04600
C1457       C  0.01790842  0.08337993  0.73446198    -0.20100
C1458       C  0.99023264  0.04812309  0.72792612    -0.12400
C1459       C  0.96304208  0.04433326  0.70505606     0.13300
C1460       C  0.96345357  0.07598780  0.69068733    -0.22800
C1461       C  0.04815690  0.15222108  0.72790933    -0.05900
H1462       H  0.03919695  0.08629679  0.75129098     0.14800
C1463       C  0.93266278  0.00745804  0.69663325    -0.16100
H1464       H  0.94230201  0.07347897  0.67384602     0.09200
H1465       H  0.94484234  0.19690794  0.74044238     0.07000
H1466       H  0.93173845  0.21308429  0.70376740     0.08200
H1467       H  0.97502586  0.24033949  0.72248157     0.07300
H1468       H  0.00043025  0.11226392  0.62434499     0.02100
H1469       H  0.04285743  0.13890873  0.64462508     0.02600
H1470       H  0.03145787  0.15594416  0.60735850     0.06100
H1471       H  0.06727586  0.15048590  0.74608424     0.05100
H1472       H  0.03719644  0.17032862  0.73893856    -0.00700
H1473       H  0.06298784  0.16495351  0.70441459     0.00800
H1474       H  0.91825514  0.99385225  0.71990691     0.04500
H1475       H  0.94274955  0.98974626  0.68340891     0.06400
H1476       H  0.91303097  0.01015218  0.67975906     0.07300
C1477       C  0.14845600  0.97347149  0.63763045    -0.22300
C1478       C  0.14750344  0.98801147  0.66967741     0.09600
C1479       C  0.17894268  0.00381754  0.68901661     0.10000
C1480       C  0.21069880  0.00485293  0.67597037    -0.17300
C1481       C  0.21172888  0.99039502  0.64397754    -0.27700
C1482       C  0.18027675  0.97444024  0.62450702     0.18400
C1483       C  0.11310807  0.98444401  0.68393407     0.12300
C1484       C  0.17892219  0.01990509  0.72333949    -0.12000
H1485       H  0.23481440  0.01680853  0.69087223     0.12600
C1486       C  0.17934354  0.95798805  0.59004184    -0.22900
H1487       H  0.12419836  0.96095113  0.62297233     0.08300
C1488       C  0.10223765  0.01255610  0.68084247     0.04600
C1489       C  0.07235650  0.01027104  0.69932697    -0.20100
C1490       C  0.05329286  0.98052837  0.72081400    -0.12400
C1491       C  0.06283466  0.95112506  0.72193081     0.13300
C1492       C  0.09277215  0.95369026  0.70370542    -0.22800
C1493       C  0.12262998  0.04520168  0.65859197    -0.05900
H1494       H  0.06466734  0.03242524  0.69802772     0.14800
C1495       C  0.04198671  0.91638872  0.74162249    -0.16100
H1496       H  0.10088475  0.93187266  0.70558966     0.09200
H1497       H  0.17101406  0.97256773  0.57122996     0.07000
H1498       H  0.15975918  0.92843963  0.59010767     0.08200
H1499       H  0.20556711  0.95992426  0.58187295     0.07300
H1500       H  0.15883919  0.99874834  0.73989678     0.02100
H1501       H  0.17211498  0.04312280  0.72056679     0.02600
H1502       H  0.20538541  0.03044578  0.73560831     0.06100
H1503       H  0.11063381  0.06470691  0.65901272     0.05100
H1504       H  0.12247586  0.03567793  0.63220417    -0.00700
H1505       H  0.15065927  0.06020289  0.66719768     0.00800
H1506       H  0.03280147  0.89229188  0.72426305     0.04500
H1507       H  0.01798324  0.91573269  0.75427851     0.06400
H1508       H  0.05943025  0.91339005  0.76091236     0.07300
loop_ 
_geom_bond_atom_site_label_1 
_geom_bond_atom_site_label_2 
_geom_bond_distance 
_geom_bond_site_symmetry_2 
_ccdc_geom_bond_type 
C1            H2   1.109       .  S
C1            C7   1.536       .  S
C1            C6   1.539   1_565  S
C1            C5   1.539   1_655  S
C3            H4   1.111       .  S
C3            C9   1.541   1_565  S
C3            C8   1.536   1_655  S
C3           C10   1.546       .  S
C5            C8   1.374       .  D
C5         C1490   1.491       .  S
C6            C9   1.378       .  D
C6         C1458   1.493       .  S
C7           C10   1.378       .  D
C7         C1417   1.494       .  S
C8         C1385   1.490       .  S
C9         C1353   1.490       .  S
C10        C1321   1.496       .  S
Zr11         O12   2.436       .  S
Zr11         O13   2.421       .  S
Zr11         O14   2.429       .  S
Zr11         O17   2.455       .  S
Zr11         O19   2.378       .  S
Zr11         O20   2.378       .  S
Zr11         O21   2.408       .  S
Zr11         O22   2.394       .  S
O12          H68   0.990       .  S
O12          H76   0.990       .  S
O13          C33   1.283   1_554  A
O14          C35   1.284       .  A
O15         Zr25   2.412       .  S
O15          C34   1.281       .  A
O16         Zr24   2.411       .  S
O16          C35   1.281       .  A
O17          C34   1.289       .  A
O18         Zr26   2.436       .  S
O18          C33   1.285       .  A
O19         Zr24   2.374       .  S
O19         Zr26   2.358   1_554  S
O20         Zr25   2.386       .  S
O20         Zr26   2.378   1_554  S
O20          H55   0.966       .  S
O21         Zr24   2.401       .  S
O21         Zr41   2.401       .  S
O21          H58   0.966       .  S
O22         Zr25   2.382       .  S
O22         Zr41   2.393       .  S
Zr23         O48   2.440       .  S
Zr23         O42   2.440   1_556  S
Zr23         O50   2.439       .  S
Zr23         O38   2.424       .  S
Zr23         O29   2.396       .  S
Zr23         O30   2.409       .  S
Zr23         O31   2.375   1_556  S
Zr23         O32   2.387   1_556  S
Zr24         O43   2.436       .  S
Zr24         O36   2.435   1_554  S
Zr24         O37   2.426   1_554  S
Zr24         O30   2.395   1_554  S
Zr24         O31   2.370       .  S
Zr25         O27   2.434       .  S
Zr25         O49   2.440   1_554  S
Zr25         O51   2.403   1_554  S
Zr25         O29   2.382   1_554  S
Zr25         O32   2.396       .  S
Zr26         O52   2.435       .  S
Zr26         O53   2.435       .  S
Zr26         O28   2.436       .  S
Zr26         O29   2.389       .  S
Zr26         O30   2.404       .  S
O27          H64   0.990       .  S
O28          H59   0.990       .  S
O28          H73   0.990       .  S
O30          H56   0.966       .  S
O31         Zr41   2.365       .  S
O32         Zr41   2.388       .  S
O32          H57   0.966       .  S
C33        C1225   1.475       .  S
C34        C1257   1.478       .  S
C35        C1289   1.464       .  S
O36          H72   0.990       .  S
O37          C39   1.283       .  A
O38          C39   1.282       .  A
C39        C1129   1.472       .  S
O40         Zr41   2.437       .  S
O40          H69   0.990       .  S
Zr41         O44   2.435       .  S
Zr41         O45   2.440       .  S
Zr41         O46   2.426       .  S
O42          C47   1.286       .  A
O43          H60   0.990       .  S
O43          H75   0.990       .  S
O44          H61   0.990       .  S
O45          H65   0.990       .  S
O45          H74   0.990       .  S
O46          C47   1.282       .  A
C47        C1161   1.476       .  S
O48          H67   0.990       .  S
O48          H71   0.990       .  S
O49          H63   0.990   1_556  S
O49          H70   0.990   1_556  S
O50          C54   1.286       .  A
O51          C54   1.280       .  A
O52          H62   0.990       .  S
O53          H66   0.990       .  S
C54        C1193   1.470       .  S
C77        C1330   1.480       .  S
C77          N78   1.365       .  A
C77          N82   1.361       .  A
N78          C79   1.361       .  A
C79        C1202   1.497       .  S
C79          N80   1.353       .  A
N80          C81   1.348       .  A
C81        C1097   1.467       .  S
C81          N82   1.354       .  A
Zr83         O84   2.438       .  S
Zr83         O85   2.429   1_554  S
Zr83         O86   2.436       .  S
Zr83         O89   2.420       .  S
Zr83         O91   2.378   1_554  S
Zr83         O92   2.381   1_554  S
Zr83         O93   2.402       .  S
Zr83         O94   2.405       .  S
O84         H140   0.990       .  S
O84         H148   0.990       .  S
O85         C105   1.284       .  A
O86         C107   1.285       .  A
O87         Zr97   2.465       .  S
O87         C106   1.291       .  A
O88         Zr96   2.415   1_554  S
O88         C107   1.282       .  A
O89         C106   1.282   1_554  A
O90         Zr98   2.439       .  S
O90         C105   1.285       .  A
O91         Zr96   2.392       .  S
O91         Zr98   2.377       .  S
O92         Zr97   2.378       .  S
O92         Zr98   2.370       .  S
O92         H127   0.961       .  S
O93         Zr96   2.389   1_554  S
O93        Zr113   2.390       .  S
O93         H130   0.966       .  S
O94         Zr97   2.393   1_554  S
O94        Zr113   2.403       .  S
Zr95        O120   2.446       .  S
Zr95        O114   2.448       .  S
Zr95        O122   2.418       .  S
Zr95        O110   2.453       .  S
Zr95        O101   2.412       .  S
Zr95        O102   2.403       .  S
Zr95        O103   2.378       .  S
Zr95        O104   2.385       .  S
Zr96        O115   2.437   1_556  S
Zr96        O108   2.436       .  S
Zr96        O109   2.410       .  S
Zr96        O102   2.391       .  S
Zr96        O103   2.383       .  S
Zr97         O99   2.434       .  S
Zr97        O121   2.436       .  S
Zr97        O123   2.438       .  S
Zr97        O101   2.405       .  S
Zr97        O104   2.385       .  S
Zr98        O124   2.434       .  S
Zr98        O125   2.437       .  S
Zr98        O100   2.438       .  S
Zr98        O101   2.406       .  S
Zr98        O102   2.389       .  S
O99         H136   0.990       .  S
O100        H131   0.990       .  S
O100        H145   0.990       .  S
O102        H128   0.965       .  S
O103       Zr113   2.376   1_556  S
O104       Zr113   2.366   1_556  S
O104        H129   0.965       .  S
C105        C937   1.491       .  S
C106        C978   1.489   1_556  S
C107       C1033   1.469       .  S
O108        H144   0.990       .  S
O109        C111   1.282       .  A
O110        C111   1.288       .  A
C111       C1001   1.474       .  S
O112       Zr113   2.438       .  S
O112        H141   0.990       .  S
Zr113       O116   2.438       .  S
Zr113       O117   2.439       .  S
Zr113       O118   2.421       .  S
O114        C119   1.288       .  A
O115        H132   0.990       .  S
O115        H147   0.989       .  S
O116        H133   0.990       .  S
O117        H137   0.990       .  S
O117        H146   0.990       .  S
O118        C119   1.282   1_554  A
C119       C1065   1.478       .  S
O120        H139   0.990       .  S
O120        H143   0.990       .  S
O121        H135   0.990       .  S
O121        H142   0.990       .  S
O122        C126   1.283       .  A
O123        C126   1.286       .  A
O124        H134   0.990       .  S
O125        H138   0.990       .  S
C126       C1106   1.476       .  S
C149        C905   1.505       .  S
C149        N150   1.369       .  A
C149        N154   1.368       .  A
N150        C151   1.365       .  A
C151        C969   1.484       .  S
C151        N152   1.352       .  A
N152        C153   1.351       .  A
C153       C1170   1.475       .  S
C153        N154   1.361       .  A
C155       C1394   1.486       .  S
C155        N156   1.361       .  A
C155        N160   1.365   1_545  A
N156        C157   1.355       .  A
C157       C1138   1.468       .  S
C157        N158   1.352       .  A
N158        C159   1.353   1_545  A
C159       C1010   1.481       .  S
C159        N160   1.362       .  A
C161        C873   1.488       .  S
C161        N162   1.358       .  A
C161        N166   1.366   1_455  A
N162        C163   1.355       .  A
C163       C1042   1.464       .  S
C163        N164   1.352   1_455  A
N164        C165   1.355       .  A
C165       C1266   1.480       .  S
C165        N166   1.365       .  A
C167        C946   1.480       .  S
C167        N168   1.360       .  A
C167        N172   1.354   1_455  A
N168        C169   1.363   1_455  A
C169       C1362   1.481   1_655  S
C169        N170   1.364       .  A
N170        C171   1.360       .  A
C171       C1234   1.478       .  S
C171        N172   1.356       .  A
C173        C841   1.474       .  S
C173        N174   1.360   1_565  A
C173        N178   1.363       .  A
N174        C175   1.355       .  A
C175       C1298   1.490       .  S
C175        N176   1.355   1_545  A
N176        C177   1.354       .  A
C177       C1074   1.480       .  S
C177        N178   1.361       .  A
Zr179       O180   2.439       .  S
Zr179       O181   2.432       .  S
Zr179       O182   2.448       .  S
Zr179       O185   2.413       .  S
Zr179       O187   2.380       .  S
Zr179       O188   2.384       .  S
Zr179       O189   2.398       .  S
Zr179       O190   2.406       .  S
O180        H236   0.990       .  S
O180        H244   0.990       .  S
O181        C201   1.284       .  A
O182        C203   1.286       .  A
O183       Zr193   2.455       .  S
O183        C202   1.289       .  A
O184       Zr192   2.405       .  S
O184        C203   1.280       .  A
O185        C202   1.282       .  A
O186       Zr194   2.435       .  S
O186        C201   1.284       .  A
O187       Zr192   2.392       .  S
O187       Zr194   2.380       .  S
O188       Zr193   2.380       .  S
O188       Zr194   2.371       .  S
O188        H223   0.965       .  S
O189       Zr192   2.392       .  S
O189       Zr209   2.384       .  S
O189        H226   0.966       .  S
O190       Zr193   2.402       .  S
O190       Zr209   2.405       .  S
Zr191       O216   2.438       .  S
Zr191       O210   2.439       .  S
Zr191       O218   2.418       .  S
Zr191       O206   2.446       .  S
Zr191       O197   2.408       .  S
Zr191       O198   2.399       .  S
Zr191       O199   2.380       .  S
Zr191       O200   2.384       .  S
Zr192       O211   2.436       .  S
Zr192       O204   2.436       .  S
Zr192       O205   2.413       .  S
Zr192       O198   2.386       .  S
Zr192       O199   2.391       .  S
Zr193       O195   2.434       .  S
Zr193       O217   2.436       .  S
Zr193       O219   2.440       .  S
Zr193       O197   2.398       .  S
Zr193       O200   2.384       .  S
Zr194       O220   2.436       .  S
Zr194       O221   2.436       .  S
Zr194       O196   2.437       .  S
Zr194       O197   2.404       .  S
Zr194       O198   2.389       .  S
O195        H232   0.990       .  S
O196        H227   0.990       .  S
O196        H241   0.990       .  S
O198        H224   0.966       .  S
O199       Zr209   2.377       .  S
O200       Zr209   2.366       .  S
O200        H225   0.965       .  S
C201        C713   1.483       .  S
C202        C754   1.489       .  S
C203        C690   1.468       .  S
O204        H240   0.990       .  S
O205        C207   1.281       .  A
O206        C207   1.287       .  A
C207        C649   1.475       .  S
O208       Zr209   2.434       .  S
O208        H237   0.990       .  S
Zr209       O212   2.436       .  S
Zr209       O213   2.437       .  S
Zr209       O214   2.420       .  S
O210        C215   1.285       .  A
O211        H228   0.990       .  S
O211        H243   0.990       .  S
O212        H229   0.990       .  S
O213        H233   0.990       .  S
O213        H242   0.990       .  S
O214        C215   1.280       .  A
C215        C777   1.473       .  S
O216        H235   0.990       .  S
O216        H239   0.990       .  S
O217        H231   0.990       .  S
O217        H238   0.990       .  S
O218        C222   1.282       .  A
O219        C222   1.286       .  A
O220        H230   0.990       .  S
O221        H234   0.990       .  S
C222        C818   1.484       .  S
C245       C1426   1.483       .  S
C245        N246   1.362       .  A
C245        N250   1.364       .  A
N246        C247   1.359       .  A
C247        C809   1.472       .  S
C247        N248   1.352       .  A
N248        C249   1.351       .  A
C249        C626   1.472       .  S
C249        N250   1.361       .  A
Zr251       O252   2.440       .  S
Zr251       O253   2.435       .  S
Zr251       O254   2.416       .  S
Zr251       O257   2.446       .  S
Zr251       O259   2.380       .  S
Zr251       O260   2.376       .  S
Zr251       O261   2.409       .  S
Zr251       O262   2.395       .  S
O252        H308   0.990       .  S
O252        H316   0.990       .  S
O253        C273   1.287       .  A
O254        C275   1.280       .  A
O255       Zr265   2.407       .  S
O255        C274   1.280       .  A
O256       Zr264   2.441       .  S
O256        C275   1.286       .  A
O257        C274   1.286       .  A
O258       Zr266   2.409       .  S
O258        C273   1.279       .  A
O259       Zr264   2.382       .  S
O259       Zr266   2.372       .  S
O260       Zr265   2.380       .  S
O260       Zr266   2.382       .  S
O260        H295   0.966       .  S
O261       Zr264   2.402       .  S
O261       Zr281   2.403       .  S
O261        H298   0.966       .  S
O262       Zr265   2.384       .  S
O262       Zr281   2.395       .  S
Zr263       O288   2.444       .  S
Zr263       O282   2.424       .  S
Zr263       O290   2.441       .  S
Zr263       O278   2.421       .  S
Zr263       O269   2.393       .  S
Zr263       O270   2.402       .  S
Zr263       O271   2.381       .  S
Zr263       O272   2.383       .  S
Zr264       O283   2.436       .  S
Zr264       O276   2.434       .  S
Zr264       O277   2.445       .  S
Zr264       O270   2.396       .  S
Zr264       O271   2.383       .  S
Zr265       O267   2.437       .  S
Zr265       O289   2.438       .  S
Zr265       O291   2.402       .  S
Zr265       O269   2.381       .  S
Zr265       O272   2.394       .  S
Zr266       O292   2.435       .  S
Zr266       O293   2.436       .  S
Zr266       O268   2.436       .  S
Zr266       O269   2.384       .  S
Zr266       O270   2.389       .  S
O267        H304   0.990       .  S
O268        H299   0.990       .  S
O268        H313   0.990       .  S
O270        H296   0.966       .  S
O271       Zr281   2.365       .  S
O272       Zr281   2.382       .  S
O272        H297   0.966       .  S
C273        C457   1.489       .  S
C274        C594   1.469       .  S
C275        C498   1.473       .  S
O276        H312   0.990       .  S
O277        C279   1.288       .  A
O278        C279   1.282       .  A
C279        C617   1.492       .  S
O280       Zr281   2.439       .  S
O280        H309   0.991       .  S
Zr281       O284   2.438       .  S
Zr281       O285   2.442       .  S
Zr281       O286   2.427       .  S
O282        C287   1.282       .  A
O283        H300   0.990       .  S
O283        H315   0.990       .  S
O284        H301   0.990       .  S
O285        H305   0.990       .  S
O285        H314   0.990       .  S
O286        C287   1.283       .  A
C287        C553   1.472       .  S
O288        H307   0.990       .  S
O288        H311   0.990       .  S
O289        H303   0.990       .  S
O289        H310   0.990       .  S
O290        C294   1.285       .  A
O291        C294   1.279       .  A
O292        H302   0.990       .  S
O293        H306   0.990       .  S
C294        C521   1.464       .  S
C317       C1481   1.473       .  S
C317        N318   1.360       .  A
C317        N322   1.363   1_565  A
N318        C319   1.357       .  A
C319        C530   1.472       .  S
C319        N320   1.352       .  A
N320        C321   1.354   1_565  A
C321        C722   1.481       .  S
C321        N322   1.361       .  A
C323       C1449   1.477       .  S
C323        N324   1.360   1_655  A
C323        N328   1.363       .  A
N324        C325   1.356       .  A
C325        C466   1.472       .  S
C325        N326   1.352   1_455  A
N326        C327   1.355       .  A
C327        C658   1.494       .  S
C327        N328   1.361       .  A
C329        C425   1.488       .  S
C329        N330   1.365       .  A
C329        N334   1.366   1_655  A
N330        C331   1.359       .  A
C331        C786   1.477       .  S
C331        N332   1.350       .  A
N332        C333   1.352   1_655  A
C333        C585   1.486       .  S
C333        N334   1.362       .  A
C335        C393   1.481       .  S
C335        N336   1.366       .  A
C335        N340   1.364       .  A
N336        C337   1.361       .  A
C337        C745   1.477       .  S
C337        N338   1.351       .  A
N338        C339   1.351       .  A
C339        C489   1.478       .  S
C339        N340   1.360       .  A
C341        C370   1.483       .  S
C341        N342   1.365   1_565  A
C341        N346   1.363       .  A
N342        C343   1.360   1_545  A
C343        C681   1.478   1_565  S
C343        N344   1.349       .  A
N344        C345   1.348       .  A
C345        C562   1.466       .  S
C345        N346   1.357       .  A
C347        H348   1.109       .  S
C347        C353   1.538   1_665  S
C347        C352   1.556       .  S
C347        C351   1.545       .  S
C349        H350   1.110       .  S
C349        C355   1.530       .  S
C349        C354   1.549       .  S
C349        C356   1.551   1_665  S
C351        C354   1.389       .  D
C351        C850   1.505       .  S
C352        C355   1.374       .  D
C352        C882   1.501       .  S
C353        C356   1.374       .  D
C353        C914   1.503       .  S
C354        C361   1.509       .  S
C355        C434   1.492       .  S
C356        C402   1.496       .  S
C357        C358   1.396       .  A
C357        C362   1.399       .  A
C357        H367   1.085       .  S
C358        C363   1.482       .  S
C358        C359   1.409       .  A
C359        C360   1.407       .  A
C359        C364   1.506   1_565  S
C360        C361   1.408       .  A
C360        H365   1.075   1_565  S
C361        C362   1.423       .  A
C362        C366   1.500       .  S
C363        C368   1.411       .  A
C363        C372   1.401       .  A
C364        H380   1.110       .  S
C364        H381   1.111       .  S
C364        H382   1.111       .  S
C366        H377   1.108       .  S
C366        H378   1.111       .  S
C366        H379   1.095       .  S
C368        C369   1.403       .  A
C368        C373   1.508   1_565  S
C369        C370   1.405       .  A
C369        H374   1.084   1_565  S
C370        C371   1.418       .  A
C371        C372   1.405       .  A
C371        C375   1.508       .  S
C372        H376   1.084       .  S
C373        H383   1.111       .  S
C373        H384   1.110   1_545  S
C373        H385   1.110       .  S
C375        H386   1.109       .  S
C375        H387   1.110       .  S
C375        H388   1.111       .  S
C389        C390   1.403       .  A
C389        C394   1.407       .  A
C389        H399   1.084       .  S
C390        C395   1.489       .  S
C390        C391   1.413       .  A
C391        C392   1.405       .  A
C391        C396   1.507       .  S
C392        C393   1.403       .  A
C392        H397   1.084       .  S
C393        C394   1.416       .  A
C394        C398   1.507       .  S
C395        C400   1.412       .  A
C395        C404   1.400       .  A
C396        H412   1.109       .  S
C396        H413   1.110       .  S
C396        H414   1.111       .  S
C398        H409   1.110       .  S
C398        H410   1.111       .  S
C398        H411   1.108       .  S
C400        C401   1.407       .  A
C400        C405   1.506       .  S
C401        C402   1.406       .  A
C401        H406   1.084       .  S
C402        C403   1.416       .  A
C403        C404   1.403       .  A
C403        C407   1.499       .  S
C404        H408   1.085       .  S
C405        H415   1.111       .  S
C405        H416   1.110       .  S
C405        H417   1.111       .  S
C407        H418   1.110   1_455  S
C407        H419   1.099   1_455  S
C407        H420   1.111       .  S
C421        C422   1.403   1_455  A
C421        C426   1.406       .  A
C421        H431   1.082       .  S
C422        C427   1.491       .  S
C422        C423   1.413       .  A
C423        C424   1.407       .  A
C423        C428   1.507       .  S
C424        C425   1.406       .  A
C424        H429   1.084       .  S
C425        C426   1.417   1_655  A
C426        C430   1.507       .  S
C427        C432   1.415   1_655  A
C427        C436   1.402       .  A
C428        H444   1.109       .  S
C428        H445   1.110       .  S
C428        H446   1.111       .  S
C430        H441   1.109       .  S
C430        H442   1.111       .  S
C430        H443   1.110       .  S
C432        C433   1.407       .  A
C432        C437   1.505       .  S
C433        C434   1.402   1_455  A
C433        H438   1.084       .  S
C434        C435   1.413       .  A
C435        C436   1.404       .  A
C435        C439   1.501       .  S
C436        H440   1.084       .  S
C437        H447   1.111       .  S
C437        H448   1.109       .  S
C437        H449   1.110       .  S
C439        H450   1.103       .  S
C439        H451   1.110       .  S
C439        H452   1.111       .  S
C453        C454   1.396       .  A
C453        C458   1.402       .  A
C453        H463   1.085       .  S
C454        C459   1.473       .  S
C454        C455   1.407       .  A
C455        C456   1.400       .  A
C455        C460   1.507       .  S
C456        C457   1.407       .  A
C456        H461   1.083       .  S
C457        C458   1.426       .  A
C458        C462   1.508       .  S
C459        C464   1.409       .  A
C459        C468   1.397       .  A
C460        H476   1.110       .  S
C460        H477   1.109       .  S
C460        H478   1.111       .  S
C462        H473   1.111       .  S
C462        H474   1.109       .  S
C462        H475   1.110       .  S
C464        C465   1.405       .  A
C464        C469   1.506       .  S
C465        C466   1.405       .  A
C465        H470   1.084       .  S
C466        C467   1.416       .  A
C467        C468   1.397       .  A
C467        C471   1.509       .  S
C468        H472   1.085       .  S
C469        H479   1.111       .  S
C469        H480   1.110       .  S
C469        H481   1.110       .  S
C471        H482   1.111       .  S
C471        H483   1.107       .  S
C471        H484   1.110       .  S
C485        C486   1.402       .  A
C485        C490   1.405       .  A
C485        H495   1.084       .  S
C486        C491   1.478       .  S
C486        C487   1.407       .  A
C487        C488   1.399       .  A
C487        C492   1.507       .  S
C488        C489   1.406       .  A
C488        H493   1.084       .  S
C489        C490   1.417       .  A
C490        C494   1.507       .  S
C491        C496   1.411       .  A
C491        C500   1.400       .  A
C492        H508   1.110       .  S
C492        H509   1.110       .  S
C492        H510   1.111       .  S
C494        H505   1.111       .  S
C494        H506   1.110       .  S
C494        H507   1.105       .  S
C496        C497   1.403       .  A
C496        C501   1.506       .  S
C497        C498   1.401       .  A
C497        H502   1.084       .  S
C498        C499   1.416       .  A
C499        C500   1.403       .  A
C499        C503   1.507       .  S
C500        H504   1.084       .  S
C501        H511   1.111       .  S
C501        H512   1.110       .  S
C501        H513   1.110       .  S
C503        H514   1.109       .  S
C503        H515   1.111       .  S
C503        H516   1.111       .  S
C517        C518   1.404       .  A
C517        C522   1.402       .  A
C517        H527   1.085       .  S
C518        C523   1.477       .  S
C518        C519   1.407       .  A
C519        C520   1.400       .  A
C519        C524   1.506       .  S
C520        C521   1.404       .  A
C520        H525   1.085       .  S
C521        C522   1.411       .  A
C522        C526   1.508       .  S
C523        C528   1.407       .  A
C523        C532   1.403       .  A
C524        H540   1.110       .  S
C524        H541   1.110       .  S
C524        H542   1.111       .  S
C526        H537   1.110       .  S
C526        H538   1.110       .  S
C526        H539   1.108       .  S
C528        C529   1.402       .  A
C528        C533   1.506       .  S
C529        C530   1.405       .  A
C529        H534   1.084       .  S
C530        C531   1.412       .  A
C531        C532   1.402       .  A
C531        C535   1.507       .  S
C532        H536   1.084       .  S
C533        H543   1.110       .  S
C533        H544   1.110       .  S
C533        H545   1.111       .  S
C535        H546   1.111       .  S
C535        H547   1.110       .  S
C535        H548   1.111       .  S
C549        C550   1.403       .  A
C549        C554   1.405       .  A
C549        H559   1.084       .  S
C550        C555   1.476       .  S
C550        C551   1.408       .  A
C551        C552   1.400       .  A
C551        C556   1.507       .  S
C552        C553   1.404       .  A
C552        H557   1.084       .  S
C553        C554   1.412       .  A
C554        C558   1.507       .  S
C555        C560   1.410       .  A
C555        C564   1.401       .  A
C556        H572   1.110       .  S
C556        H573   1.109       .  S
C556        H574   1.111       .  S
C558        H569   1.111       .  S
C558        H570   1.110       .  S
C558        H571   1.110       .  S
C560        C561   1.399       .  A
C560        C565   1.508       .  S
C561        C562   1.402       .  A
C561        H566   1.085       .  S
C562        C563   1.414       .  A
C563        C564   1.403       .  A
C563        C567   1.507       .  S
C564        H568   1.084       .  S
C565        H575   1.111       .  S
C565        H576   1.110       .  S
C565        H577   1.109       .  S
C567        H578   1.111       .  S
C567        H579   1.107       .  S
C567        H580   1.110       .  S
C581        C582   1.404       .  A
C581        C586   1.408       .  A
C581        H591   1.084       .  S
C582        C587   1.480       .  S
C582        C583   1.406       .  A
C583        C584   1.400       .  A
C583        C588   1.508       .  S
C584        C585   1.409       .  A
C584        H589   1.084       .  S
C585        C586   1.416       .  A
C586        C590   1.506       .  S
C587        C592   1.410       .  A
C587        C596   1.402       .  A
C588        H604   1.110       .  S
C588        H605   1.109       .  S
C588        H606   1.111       .  S
C590        H601   1.111       .  S
C590        H602   1.110       .  S
C590        H603   1.110       .  S
C592        C593   1.405       .  A
C592        C597   1.506       .  S
C593        C594   1.403       .  A
C593        H598   1.084       .  S
C594        C595   1.413       .  A
C595        C596   1.402       .  A
C595        C599   1.508       .  S
C596        H600   1.085       .  S
C597        H607   1.111       .  S
C597        H608   1.110       .  S
C597        H609   1.109       .  S
C599        H610   1.110       .  S
C599        H611   1.109       .  S
C599        H612   1.110       .  S
C613        C614   1.398       .  A
C613        C618   1.404       .  A
C613        H623   1.084       .  S
C614        C619   1.483       .  S
C614        C615   1.410       .  A
C615        C616   1.405       .  A
C615        C620   1.506       .  S
C616        C617   1.408       .  A
C616        H621   1.084       .  S
C617        C618   1.424       .  A
C618        C622   1.509       .  S
C619        C624   1.411       .  A
C619        C628   1.402       .  A
C620        H636   1.110       .  S
C620        H637   1.110       .  S
C620        H638   1.111       .  S
C622        H633   1.111       .  S
C622        H634   1.110       .  S
C622        H635   1.109       .  S
C624        C625   1.404       .  A
C624        C629   1.506       .  S
C625        C626   1.403       .  A
C625        H630   1.084       .  S
C626        C627   1.415       .  A
C627        C628   1.404       .  A
C627        C631   1.508       .  S
C628        H632   1.084       .  S
C629        H639   1.111       .  S
C629        H640   1.110       .  S
C629        H641   1.110       .  S
C631        H642   1.110       .  S
C631        H643   1.108       .  S
C631        H644   1.111       .  S
C645        C646   1.402       .  A
C645        C650   1.406       .  A
C645        H655   1.084       .  S
C646        C651   1.481       .  S
C646        C647   1.411       .  A
C647        C648   1.401       .  A
C647        C652   1.507       .  S
C648        C649   1.403       .  A
C648        H653   1.084       .  S
C649        C650   1.415       .  A
C650        C654   1.506       .  S
C651        C656   1.406       .  A
C651        C660   1.402       .  A
C652        H668   1.110       .  S
C652        H669   1.110       .  S
C652        H670   1.111       .  S
C654        H665   1.111       .  S
C654        H666   1.111       .  S
C654        H667   1.109       .  S
C656        C657   1.399       .  A
C656        C661   1.508       .  S
C657        C658   1.411       .  A
C657        H662   1.084       .  S
C658        C659   1.421       .  A
C659        C660   1.408       .  A
C659        C663   1.507       .  S
C660        H664   1.084       .  S
C661        H671   1.111       .  S
C661        H672   1.110       .  S
C661        H673   1.111       .  S
C663        H674   1.110       .  S
C663        H675   1.110       .  S
C663        H676   1.111       .  S
C677        C678   1.397       .  A
C677        C682   1.401       .  A
C677        H687   1.084       .  S
C678        C683   1.476       .  S
C678        C679   1.411       .  A
C679        C680   1.403       .  A
C679        C684   1.506       .  S
C680        C681   1.403       .  A
C680        H685   1.084       .  S
C681        C682   1.420       .  A
C682        C686   1.510   1_545  S
C683        C688   1.408       .  A
C683        C692   1.401       .  A
C684        H700   1.110       .  S
C684        H701   1.110       .  S
C684        H702   1.111       .  S
C686        H697   1.111       .  S
C686        H698   1.108       .  S
C686        H699   1.110       .  S
C688        C689   1.405       .  A
C688        C693   1.505       .  S
C689        C690   1.405       .  A
C689        H694   1.084       .  S
C690        C691   1.412       .  A
C691        C692   1.399       .  A
C691        C695   1.508       .  S
C692        H696   1.085       .  S
C693        H703   1.111       .  S
C693        H704   1.110       .  S
C693        H705   1.110       .  S
C695        H706   1.110       .  S
C695        H707   1.109       .  S
C695        H708   1.110       .  S
C709        C710   1.401       .  A
C709        C714   1.403       .  A
C709        H719   1.084       .  S
C710        C715   1.481       .  S
C710        C711   1.409       .  A
C711        C712   1.406       .  A
C711        C716   1.505       .  S
C712        C713   1.408       .  A
C712        H717   1.084       .  S
C713        C714   1.415       .  A
C714        C718   1.506       .  S
C715        C720   1.409       .  A
C715        C724   1.404       .  A
C716        H732   1.110       .  S
C716        H733   1.109       .  S
C716        H734   1.110       .  S
C718        H729   1.111       .  S
C718        H730   1.108       .  S
C718        H731   1.110       .  S
C720        C721   1.401       .  A
C720        C725   1.508       .  S
C721        C722   1.406       .  A
C721        H726   1.084       .  S
C722        C723   1.414       .  A
C723        C724   1.408       .  A
C723        C727   1.506       .  S
C724        H728   1.084       .  S
C725        H735   1.111       .  S
C725        H736   1.110       .  S
C725        H737   1.109       .  S
C727        H738   1.111       .  S
C727        H739   1.110       .  S
C727        H740   1.111       .  S
C741        C742   1.400       .  A
C741        C746   1.402       .  A
C741        H751   1.085       .  S
C742        C747   1.485       .  S
C742        C743   1.413       .  A
C743        C744   1.408       .  A
C743        C748   1.505       .  S
C744        C745   1.403       .  A
C744        H749   1.084       .  S
C745        C746   1.417       .  A
C746        C750   1.508       .  S
C747        C752   1.408       .  A
C747        C756   1.404       .  A
C748        H764   1.110       .  S
C748        H765   1.110       .  S
C748        H766   1.111       .  S
C750        H761   1.111       .  S
C750        H762   1.110       .  S
C750        H763   1.109       .  S
C752        C753   1.403       .  A
C752        C757   1.506       .  S
C753        C754   1.409       .  A
C753        H758   1.084       .  S
C754        C755   1.418       .  A
C755        C756   1.408       .  A
C755        C759   1.507       .  S
C756        H760   1.084       .  S
C757        H767   1.111       .  S
C757        H768   1.110       .  S
C757        H769   1.110       .  S
C759        H770   1.111       .  S
C759        H771   1.110       .  S
C759        H772   1.110       .  S
C773        C774   1.403       .  A
C773        C778   1.404       .  A
C773        H783   1.084       .  S
C774        C779   1.479       .  S
C774        C775   1.409       .  A
C775        C776   1.402       .  A
C775        C780   1.506       .  S
C776        C777   1.403       .  A
C776        H781   1.083       .  S
C777        C778   1.412       .  A
C778        C782   1.506       .  S
C779        C784   1.408       .  A
C779        C788   1.403       .  A
C780        H796   1.110       .  S
C780        H797   1.110       .  S
C780        H798   1.110       .  S
C782        H793   1.111       .  S
C782        H794   1.109       .  S
C782        H795   1.110       .  S
C784        C785   1.399       .  A
C784        C789   1.508       .  S
C785        C786   1.404       .  A
C785        H790   1.084       .  S
C786        C787   1.414       .  A
C787        C788   1.408       .  A
C787        C791   1.506       .  S
C788        H792   1.084       .  S
C789        H799   1.111       .  S
C789        H800   1.110       .  S
C789        H801   1.110       .  S
C791        H802   1.110       .  S
C791        H803   1.110       .  S
C791        H804   1.111       .  S
C805        C806   1.400       .  A
C805        C810   1.403       .  A
C805        H815   1.085       .  S
C806        C811   1.475       .  S
C806        C807   1.408       .  A
C807        C808   1.400       .  A
C807        C812   1.507       .  S
C808        C809   1.404       .  A
C808        H813   1.085       .  S
C809        C810   1.416       .  A
C810        C814   1.506       .  S
C811        C816   1.406       .  A
C811        C820   1.399       .  A
C812        H828   1.110       .  S
C812        H829   1.110       .  S
C812        H830   1.111       .  S
C814        H825   1.110       .  S
C814        H826   1.111       .  S
C814        H827   1.105       .  S
C816        C817   1.403       .  A
C816        C821   1.506       .  S
C817        C818   1.411       .  A
C817        H822   1.083       .  S
C818        C819   1.417       .  A
C819        C820   1.401       .  A
C819        C823   1.508       .  S
C820        H824   1.084       .  S
C821        H831   1.111       .  S
C821        H832   1.110       .  S
C821        H833   1.110       .  S
C823        H834   1.111       .  S
C823        H835   1.111       .  S
C823        H836   1.109       .  S
C837        C838   1.398       .  A
C837        C842   1.400       .  A
C837        H847   1.085   1_565  S
C838        C843   1.477       .  S
C838        C839   1.411       .  A
C839        C840   1.404       .  A
C839        C844   1.506       .  S
C840        C841   1.403       .  A
C840        H845   1.084       .  S
C841        C842   1.417       .  A
C842        C846   1.507   1_565  S
C843        C848   1.407       .  A
C843        C852   1.399   1_565  A
C844        H860   1.110       .  S
C844        H861   1.110       .  S
C844        H862   1.111       .  S
C846        H857   1.111       .  S
C846        H858   1.110       .  S
C846        H859   1.108       .  S
C848        C849   1.402       .  A
C848        C853   1.506       .  S
C849        C850   1.407       .  A
C849        H854   1.076       .  S
C850        C851   1.419   1_565  A
C851        C852   1.402       .  A
C851        C855   1.503       .  S
C852        H856   1.085       .  S
C853        H863   1.111       .  S
C853        H864   1.110       .  S
C853        H865   1.110       .  S
C855        H866   1.110       .  S
C855        H867   1.103       .  S
C855        H868   1.111       .  S
C869        C870   1.397       .  A
C869        C874   1.404       .  A
C869        H879   1.084       .  S
C870        C875   1.482       .  S
C870        C871   1.412   1_455  A
C871        C872   1.406       .  A
C871        C876   1.507       .  S
C872        C873   1.405   1_655  A
C872        H877   1.084       .  S
C873        C874   1.423       .  A
C874        C878   1.508       .  S
C875        C880   1.409       .  A
C875        C884   1.397   1_455  A
C876        H892   1.110       .  S
C876        H893   1.110       .  S
C876        H894   1.110       .  S
C878        H889   1.111       .  S
C878        H890   1.109       .  S
C878        H891   1.109       .  S
C880        C881   1.404       .  A
C880        C885   1.505       .  S
C881        C882   1.407   1_455  A
C881        H886   1.083       .  S
C882        C883   1.420       .  A
C883        C884   1.401       .  A
C883        C887   1.496       .  S
C884        H888   1.085       .  S
C885        H895   1.111       .  S
C885        H896   1.110       .  S
C885        H897   1.109       .  S
C887        H898   1.111       .  S
C887        H899   1.110       .  S
C887        H900   1.092       .  S
C901        C902   1.403       .  A
C901        C906   1.412       .  A
C901        H911   1.084       .  S
C902        C907   1.498       .  S
C902        C903   1.413       .  A
C903        C904   1.409       .  A
C903        C908   1.508       .  S
C904        C905   1.410       .  A
C904        H909   1.084       .  S
C905        C906   1.423       .  A
C906        C910   1.507       .  S
C907        C912   1.413       .  A
C907        C916   1.404       .  A
C908        H924   1.109       .  S
C908        H925   1.110       .  S
C908        H926   1.111       .  S
C910        H921   1.109       .  S
C910        H922   1.111       .  S
C910        H923   1.110       .  S
C912        C913   1.408       .  A
C912        C917   1.506       .  S
C913        C914   1.408       .  A
C913        H918   1.083       .  S
C914        C915   1.417       .  A
C915        C916   1.408       .  A
C915        C919   1.503   1_545  S
C916        H920   1.084       .  S
C917        H927   1.111       .  S
C917        H928   1.109       .  S
C917        H929   1.110       .  S
C919        H930   1.110       .  S
C919        H931   1.100       .  S
C919        H932   1.110       .  S
C933        C934   1.398       .  A
C933        C938   1.406       .  A
C933        H943   1.084       .  S
C934        C939   1.483       .  S
C934        C935   1.410       .  A
C935        C936   1.405       .  A
C935        C940   1.507       .  S
C936        C937   1.407       .  A
C936        H941   1.084       .  S
C937        C938   1.422       .  A
C938        C942   1.507       .  S
C939        C944   1.409       .  A
C939        C948   1.402       .  A
C940        H956   1.110       .  S
C940        H957   1.110       .  S
C940        H958   1.111   1_556  S
C942        H953   1.111       .  S
C942        H954   1.109       .  S
C942        H955   1.111       .  S
C944        C945   1.404       .  A
C944        C949   1.506       .  S
C945        C946   1.406       .  A
C945        H950   1.084       .  S
C946        C947   1.417       .  A
C947        C948   1.405       .  A
C947        C951   1.507       .  S
C948        H952   1.085       .  S
C949        H959   1.111       .  S
C949        H960   1.110       .  S
C949        H961   1.110       .  S
C951        H962   1.110       .  S
C951        H963   1.106       .  S
C951        H964   1.111       .  S
C965        C966   1.400       .  A
C965        C970   1.404       .  A
C965        H975   1.084   1_554  S
C966        C971   1.490       .  S
C966        C967   1.413       .  A
C967        C968   1.410       .  A
C967        C972   1.505       .  S
C968        C969   1.405       .  A
C968        H973   1.084       .  S
C969        C970   1.418       .  A
C970        C974   1.508   1_554  S
C971        C976   1.413       .  A
C971        C980   1.401       .  A
C972        H988   1.110       .  S
C972        H989   1.110       .  S
C972        H990   1.111       .  S
C974        H985   1.110       .  S
C974        H986   1.110       .  S
C974        H987   1.108   1_556  S
C976        C977   1.408       .  A
C976        C981   1.506       .  S
C977        C978   1.404       .  A
C977        H982   1.084       .  S
C978        C979   1.421   1_554  A
C979        C980   1.408   1_556  A
C979        C983   1.508       .  S
C980        H984   1.084       .  S
C981        H991   1.111       .  S
C981        H992   1.110       .  S
C981        H993   1.110       .  S
C983        H994   1.111       .  S
C983        H995   1.110       .  S
C983        H996   1.109       .  S
C997        C998   1.400       .  A
C997       C1002   1.399       .  A
C997       H1007   1.085       .  S
C998       C1003   1.480       .  S
C998        C999   1.411       .  A
C999       C1000   1.407       .  A
C999       C1004   1.505       .  S
C1000      C1001   1.405       .  A
C1000      H1005   1.084       .  S
C1001      C1002   1.415       .  A
C1002      C1006   1.508       .  S
C1003      C1008   1.412       .  A
C1003      C1012   1.398       .  A
C1004      H1020   1.110       .  S
C1004      H1021   1.110       .  S
C1004      H1022   1.111       .  S
C1006      H1017   1.110       .  S
C1006      H1018   1.111       .  S
C1006      H1019   1.109       .  S
C1008      C1009   1.404       .  A
C1008      C1013   1.506       .  S
C1009      C1010   1.403       .  A
C1009      H1014   1.084       .  S
C1010      C1011   1.420       .  A
C1011      C1012   1.403       .  A
C1011      C1015   1.509       .  S
C1012      H1016   1.084       .  S
C1013      H1023   1.111       .  S
C1013      H1024   1.110       .  S
C1013      H1025   1.110       .  S
C1015      H1026   1.108   1_565  S
C1015      H1027   1.110   1_565  S
C1015      H1028   1.111       .  S
C1029      C1030   1.399       .  A
C1029      C1034   1.399       .  A
C1029      H1039   1.085       .  S
C1030      C1035   1.476       .  S
C1030      C1031   1.412       .  A
C1031      C1032   1.402       .  A
C1031      C1036   1.507       .  S
C1032      C1033   1.401       .  A
C1032      H1037   1.084       .  S
C1033      C1034   1.415       .  A
C1034      C1038   1.508       .  S
C1035      C1040   1.411       .  A
C1035      C1044   1.400       .  A
C1036      H1052   1.109       .  S
C1036      H1053   1.110       .  S
C1036      H1054   1.111       .  S
C1038      H1049   1.111       .  S
C1038      H1050   1.110       .  S
C1038      H1051   1.108       .  S
C1040      C1041   1.403       .  A
C1040      C1045   1.506       .  S
C1041      C1042   1.401       .  A
C1041      H1046   1.084       .  S
C1042      C1043   1.414       .  A
C1043      C1044   1.398       .  A
C1043      C1047   1.508       .  S
C1044      H1048   1.085       .  S
C1045      H1055   1.111       .  S
C1045      H1056   1.109       .  S
C1045      H1057   1.110       .  S
C1047      H1058   1.110       .  S
C1047      H1059   1.106       .  S
C1047      H1060   1.110       .  S
C1061      C1062   1.402   1_556  A
C1061      C1066   1.406       .  A
C1061      H1071   1.084       .  S
C1062      C1067   1.483       .  S
C1062      C1063   1.412       .  A
C1063      C1064   1.403       .  A
C1063      C1068   1.508       .  S
C1064      C1065   1.404   1_554  A
C1064      H1069   1.085       .  S
C1065      C1066   1.418       .  A
C1066      C1070   1.508       .  S
C1067      C1072   1.413       .  A
C1067      C1076   1.398       .  A
C1068      H1084   1.110       .  S
C1068      H1085   1.108       .  S
C1068      H1086   1.111       .  S
C1070      H1081   1.111       .  S
C1070      H1082   1.111       .  S
C1070      H1083   1.106       .  S
C1072      C1073   1.409       .  A
C1072      C1077   1.506       .  S
C1073      C1074   1.405       .  A
C1073      H1078   1.084       .  S
C1074      C1075   1.418       .  A
C1075      C1076   1.400       .  A
C1075      C1079   1.508   1_554  S
C1076      H1080   1.085   1_554  S
C1077      H1087   1.111       .  S
C1077      H1088   1.110       .  S
C1077      H1089   1.108       .  S
C1079      H1090   1.111       .  S
C1079      H1091   1.108       .  S
C1079      H1092   1.110       .  S
C1093      C1094   1.399       .  A
C1093      C1098   1.399       .  A
C1093      H1103   1.085       .  S
C1094      C1099   1.475       .  S
C1094      C1095   1.411       .  A
C1095      C1096   1.403       .  A
C1095      C1100   1.507       .  S
C1096      C1097   1.402       .  A
C1096      H1101   1.084       .  S
C1097      C1098   1.414       .  A
C1098      C1102   1.507       .  S
C1099      C1104   1.407       .  A
C1099      C1108   1.401       .  A
C1100      H1116   1.110       .  S
C1100      H1117   1.110       .  S
C1100      H1118   1.111       .  S
C1102      H1113   1.111       .  S
C1102      H1114   1.110       .  S
C1102      H1115   1.109       .  S
C1104      C1105   1.402       .  A
C1104      C1109   1.505       .  S
C1105      C1106   1.406       .  A
C1105      H1110   1.084       .  S
C1106      C1107   1.416       .  A
C1107      C1108   1.401       .  A
C1107      C1111   1.508       .  S
C1108      H1112   1.084       .  S
C1109      H1119   1.111       .  S
C1109      H1120   1.110       .  S
C1109      H1121   1.110       .  S
C1111      H1122   1.109       .  S
C1111      H1123   1.111       .  S
C1111      H1124   1.111       .  S
C1125      C1126   1.400       .  A
C1125      C1130   1.399       .  A
C1125      H1135   1.084       .  S
C1126      C1131   1.474       .  S
C1126      C1127   1.409       .  A
C1127      C1128   1.404       .  A
C1127      C1132   1.506       .  S
C1128      C1129   1.406       .  A
C1128      H1133   1.084       .  S
C1129      C1130   1.413       .  A
C1130      C1134   1.507       .  S
C1131      C1136   1.410       .  A
C1131      C1140   1.400       .  A
C1132      H1148   1.110       .  S
C1132      H1149   1.110       .  S
C1132      H1150   1.111       .  S
C1134      H1145   1.111       .  S
C1134      H1146   1.108       .  S
C1134      H1147   1.111       .  S
C1136      C1137   1.403       .  A
C1136      C1141   1.506       .  S
C1137      C1138   1.402       .  A
C1137      H1142   1.084       .  S
C1138      C1139   1.415       .  A
C1139      C1140   1.400       .  A
C1139      C1143   1.508       .  S
C1140      H1144   1.085       .  S
C1141      H1151   1.111       .  S
C1141      H1152   1.110       .  S
C1141      H1153   1.109       .  S
C1143      H1154   1.111       .  S
C1143      H1155   1.108       .  S
C1143      H1156   1.110       .  S
C1157      C1158   1.403       .  A
C1157      C1162   1.405       .  A
C1157      H1167   1.084       .  S
C1158      C1163   1.483       .  S
C1158      C1159   1.409       .  A
C1159      C1160   1.404       .  A
C1159      C1164   1.506       .  S
C1160      C1161   1.406       .  A
C1160      H1165   1.085       .  S
C1161      C1162   1.414       .  A
C1162      C1166   1.507       .  S
C1163      C1168   1.412       .  A
C1163      C1172   1.400       .  A
C1164      H1180   1.110       .  S
C1164      H1181   1.110       .  S
C1164      H1182   1.111       .  S
C1166      H1177   1.110       .  S
C1166      H1178   1.110       .  S
C1166      H1179   1.107       .  S
C1168      C1169   1.407       .  A
C1168      C1173   1.506       .  S
C1169      C1170   1.403       .  A
C1169      H1174   1.084       .  S
C1170      C1171   1.416       .  A
C1171      C1172   1.403       .  A
C1171      C1175   1.507       .  S
C1172      H1176   1.085       .  S
C1173      H1183   1.111       .  S
C1173      H1184   1.110       .  S
C1173      H1185   1.110       .  S
C1175      H1186   1.110   1_554  S
C1175      H1187   1.108       .  S
C1175      H1188   1.111   1_554  S
C1189      C1190   1.398       .  A
C1189      C1194   1.398       .  A
C1189      H1199   1.085       .  S
C1190      C1195   1.475       .  S
C1190      C1191   1.411       .  A
C1191      C1192   1.404       .  A
C1191      C1196   1.508       .  S
C1192      C1193   1.404       .  A
C1192      H1197   1.084       .  S
C1193      C1194   1.415       .  A
C1194      C1198   1.508   1_556  S
C1195      C1200   1.404       .  A
C1195      C1204   1.401       .  A
C1196      H1212   1.110       .  S
C1196      H1213   1.108       .  S
C1196      H1214   1.111       .  S
C1198      H1209   1.110       .  S
C1198      H1210   1.111       .  S
C1198      H1211   1.108       .  S
C1200      C1201   1.396       .  A
C1200      C1205   1.510       .  S
C1201      C1202   1.414       .  A
C1201      H1206   1.083       .  S
C1202      C1203   1.422       .  A
C1203      C1204   1.408       .  A
C1203      C1207   1.507       .  S
C1204      H1208   1.084       .  S
C1205      H1215   1.111       .  S
C1205      H1216   1.110       .  S
C1205      H1217   1.108       .  S
C1207      H1218   1.111       .  S
C1207      H1219   1.110       .  S
C1207      H1220   1.110       .  S
C1221      C1222   1.402       .  A
C1221      C1226   1.402       .  A
C1221      H1231   1.085       .  S
C1222      C1227   1.482       .  S
C1222      C1223   1.411   1_556  A
C1223      C1224   1.405       .  A
C1223      C1228   1.506       .  S
C1224      C1225   1.406   1_554  A
C1224      H1229   1.084       .  S
C1225      C1226   1.414       .  A
C1226      C1230   1.507       .  S
C1227      C1232   1.412       .  A
C1227      C1236   1.399       .  A
C1228      H1244   1.110       .  S
C1228      H1245   1.110   1_554  S
C1228      H1246   1.111       .  S
C1230      H1241   1.110       .  S
C1230      H1242   1.111       .  S
C1230      H1243   1.107       .  S
C1232      C1233   1.408       .  A
C1232      C1237   1.506       .  S
C1233      C1234   1.405       .  A
C1233      H1238   1.084       .  S
C1234      C1235   1.416       .  A
C1235      C1236   1.401       .  A
C1235      C1239   1.508   1_556  S
C1236      H1240   1.085   1_556  S
C1237      H1247   1.111       .  S
C1237      H1248   1.110       .  S
C1237      H1249   1.110       .  S
C1239      H1250   1.110       .  S
C1239      H1251   1.108       .  S
C1239      H1252   1.110       .  S
C1253      C1254   1.403       .  A
C1253      C1258   1.406       .  A
C1253      H1263   1.084       .  S
C1254      C1259   1.486       .  S
C1254      C1255   1.410       .  A
C1255      C1256   1.404       .  A
C1255      C1260   1.506       .  S
C1256      C1257   1.406       .  A
C1256      H1261   1.084       .  S
C1257      C1258   1.416       .  A
C1258      C1262   1.508       .  S
C1259      C1264   1.410       .  A
C1259      C1268   1.402       .  A
C1260      H1276   1.110       .  S
C1260      H1277   1.110       .  S
C1260      H1278   1.111       .  S
C1262      H1273   1.110       .  S
C1262      H1274   1.111       .  S
C1262      H1275   1.107       .  S
C1264      C1265   1.406       .  A
C1264      C1269   1.505       .  S
C1265      C1266   1.407       .  A
C1265      H1270   1.084       .  S
C1266      C1267   1.417       .  A
C1267      C1268   1.404       .  A
C1267      C1271   1.509       .  S
C1268      H1272   1.085       .  S
C1269      H1279   1.111       .  S
C1269      H1280   1.110       .  S
C1269      H1281   1.110       .  S
C1271      H1282   1.111       .  S
C1271      H1283   1.105       .  S
C1271      H1284   1.110       .  S
C1285      C1286   1.399       .  A
C1285      C1290   1.397       .  A
C1285      H1295   1.085       .  S
C1286      C1291   1.472       .  S
C1286      C1287   1.409       .  A
C1287      C1288   1.402       .  A
C1287      C1292   1.505       .  S
C1288      C1289   1.402       .  A
C1288      H1293   1.084       .  S
C1289      C1290   1.417       .  A
C1290      C1294   1.510   1_554  S
C1291      C1296   1.405       .  A
C1291      C1300   1.399       .  A
C1292      H1308   1.110       .  S
C1292      H1309   1.110       .  S
C1292      H1310   1.111       .  S
C1294      H1305   1.111       .  S
C1294      H1306   1.111       .  S
C1294      H1307   1.107       .  S
C1296      C1297   1.397       .  A
C1296      C1301   1.508       .  S
C1297      C1298   1.409       .  A
C1297      H1302   1.083       .  S
C1298      C1299   1.423       .  A
C1299      C1300   1.405       .  A
C1299      C1303   1.506       .  S
C1300      H1304   1.084       .  S
C1301      H1311   1.111       .  S
C1301      H1312   1.110       .  S
C1301      H1313   1.110       .  S
C1303      H1314   1.111       .  S
C1303      H1315   1.109       .  S
C1303      H1316   1.110       .  S
C1317      C1318   1.401       .  A
C1317      C1322   1.406       .  A
C1317      H1327   1.085       .  S
C1318      C1323   1.482       .  S
C1318      C1319   1.408       .  A
C1319      C1320   1.402       .  A
C1319      C1324   1.506       .  S
C1320      C1321   1.407       .  A
C1320      H1325   1.084       .  S
C1321      C1322   1.417       .  A
C1322      C1326   1.503       .  S
C1323      C1328   1.410       .  A
C1323      C1332   1.400       .  A
C1324      H1340   1.110       .  S
C1324      H1341   1.110       .  S
C1324      H1342   1.111       .  S
C1326      H1337   1.110       .  S
C1326      H1338   1.111       .  S
C1326      H1339   1.100       .  S
C1328      C1329   1.407       .  A
C1328      C1333   1.505       .  S
C1329      C1330   1.406       .  A
C1329      H1334   1.084       .  S
C1330      C1331   1.416       .  A
C1331      C1332   1.401       .  A
C1331      C1335   1.508       .  S
C1332      H1336   1.083       .  S
C1333      H1343   1.111       .  S
C1333      H1344   1.110       .  S
C1333      H1345   1.110       .  S
C1335      H1346   1.109       .  S
C1335      H1347   1.110       .  S
C1335      H1348   1.111       .  S
C1349      C1350   1.401       .  A
C1349      C1354   1.402       .  A
C1349      H1359   1.085       .  S
C1350      C1355   1.486   1_655  S
C1350      C1351   1.412   1_655  A
C1351      C1352   1.407       .  A
C1351      C1356   1.505       .  S
C1352      C1353   1.404   1_455  A
C1352      H1357   1.084       .  S
C1353      C1354   1.417       .  A
C1354      C1358   1.505       .  S
C1355      C1360   1.411       .  A
C1355      C1364   1.402   1_455  A
C1356      H1372   1.110       .  S
C1356      H1373   1.110       .  S
C1356      H1374   1.111       .  S
C1358      H1369   1.110       .  S
C1358      H1370   1.110       .  S
C1358      H1371   1.106       .  S
C1360      C1361   1.404       .  A
C1360      C1365   1.504       .  S
C1361      C1362   1.403       .  A
C1361      H1366   1.084       .  S
C1362      C1363   1.417   1_455  A
C1363      C1364   1.407       .  A
C1363      C1367   1.507       .  S
C1364      H1368   1.084       .  S
C1365      H1375   1.111       .  S
C1365      H1376   1.110   1_455  S
C1365      H1377   1.110       .  S
C1367      H1378   1.110       .  S
C1367      H1379   1.108       .  S
C1367      H1380   1.111   1_655  S
C1381      C1382   1.402       .  A
C1381      C1386   1.405       .  A
C1381      H1391   1.084       .  S
C1382      C1387   1.482   1_565  S
C1382      C1383   1.413   1_565  A
C1383      C1384   1.401       .  A
C1383      C1388   1.507       .  S
C1384      C1385   1.405   1_545  A
C1384      H1389   1.085       .  S
C1385      C1386   1.415       .  A
C1386      C1390   1.505       .  S
C1387      C1392   1.408       .  A
C1387      C1396   1.401   1_545  A
C1388      H1404   1.107       .  S
C1388      H1405   1.108       .  S
C1388      H1406   1.110       .  S
C1390      H1401   1.110       .  S
C1390      H1402   1.110       .  S
C1390      H1403   1.103       .  S
C1392      C1393   1.404       .  A
C1392      C1397   1.506       .  S
C1393      C1394   1.409       .  A
C1393      H1398   1.084       .  S
C1394      C1395   1.420   1_545  A
C1395      C1396   1.405       .  A
C1395      C1399   1.509       .  S
C1396      H1400   1.084       .  S
C1397      H1407   1.111       .  S
C1397      H1408   1.110       .  S
C1397      H1409   1.110       .  S
C1399      H1410   1.110       .  S
C1399      H1411   1.104       .  S
C1399      H1412   1.111       .  S
C1413      C1414   1.399       .  A
C1413      C1418   1.402       .  A
C1413      H1423   1.085       .  S
C1414      C1419   1.480       .  S
C1414      C1415   1.409       .  A
C1415      C1416   1.403       .  A
C1415      C1420   1.506       .  S
C1416      C1417   1.407       .  A
C1416      H1421   1.084       .  S
C1417      C1418   1.418       .  A
C1418      C1422   1.502       .  S
C1419      C1424   1.410       .  A
C1419      C1428   1.399       .  A
C1420      H1436   1.109       .  S
C1420      H1437   1.109       .  S
C1420      H1438   1.111       .  S
C1422      H1433   1.110       .  S
C1422      H1434   1.111       .  S
C1422      H1435   1.096       .  S
C1424      C1425   1.407       .  A
C1424      C1429   1.506       .  S
C1425      C1426   1.406       .  A
C1425      H1430   1.084       .  S
C1426      C1427   1.416       .  A
C1427      C1428   1.403       .  A
C1427      C1431   1.505       .  S
C1428      H1432   1.085       .  S
C1429      H1439   1.111       .  S
C1429      H1440   1.110       .  S
C1429      H1441   1.109       .  S
C1431      H1442   1.109       .  S
C1431      H1443   1.110       .  S
C1431      H1444   1.111       .  S
C1445      C1446   1.402       .  A
C1445      C1450   1.405       .  A
C1445      H1455   1.084       .  S
C1446      C1451   1.481       .  S
C1446      C1447   1.410   1_655  A
C1447      C1448   1.404       .  A
C1447      C1452   1.506       .  S
C1448      C1449   1.404   1_455  A
C1448      H1453   1.084       .  S
C1449      C1450   1.413       .  A
C1450      C1454   1.506       .  S
C1451      C1456   1.409   1_655  A
C1451      C1460   1.399       .  A
C1452      H1468   1.110       .  S
C1452      H1469   1.110       .  S
C1452      H1470   1.111       .  S
C1454      H1465   1.111       .  S
C1454      H1466   1.109       .  S
C1454      H1467   1.111       .  S
C1456      C1457   1.403       .  A
C1456      C1461   1.506       .  S
C1457      C1458   1.406   1_455  A
C1457      H1462   1.084       .  S
C1458      C1459   1.418       .  A
C1459      C1460   1.406       .  A
C1459      C1463   1.506       .  S
C1460      H1464   1.084       .  S
C1461      H1471   1.111       .  S
C1461      H1472   1.109       .  S
C1461      H1473   1.110       .  S
C1463      H1474   1.105   1_545  S
C1463      H1475   1.107   1_545  S
C1463      H1476   1.111       .  S
C1477      C1478   1.402       .  A
C1477      C1482   1.407       .  A
C1477      H1487   1.084       .  S
C1478      C1483   1.485       .  S
C1478      C1479   1.412   1_565  A
C1479      C1480   1.402       .  A
C1479      C1484   1.503       .  S
C1480      C1481   1.400   1_545  A
C1480      H1485   1.084       .  S
C1481      C1482   1.415       .  A
C1482      C1486   1.507       .  S
C1483      C1488   1.412   1_565  A
C1483      C1492   1.399       .  A
C1484      H1500   1.109   1_545  S
C1484      H1501   1.107       .  S
C1484      H1502   1.111       .  S
C1486      H1497   1.110       .  S
C1486      H1498   1.110       .  S
C1486      H1499   1.109       .  S
C1488      C1489   1.408       .  A
C1488      C1493   1.505       .  S
C1489      C1490   1.403   1_545  A
C1489      H1494   1.084       .  S
C1490      C1491   1.419       .  A
C1491      C1492   1.401       .  A
C1491      C1495   1.507       .  S
C1492      H1496   1.085       .  S
C1493      H1503   1.111       .  S
C1493      H1504   1.110       .  S
C1493      H1505   1.110       .  S
C1495      H1506   1.110       .  S
C1495      H1507   1.106       .  S
C1495      H1508   1.110       .  S
