geometry optimzed in LAMMPS
_audit_creation_date              2020-11-30 
_audit_creation_method            'lammps2cif' 
_symmetry_space_group_name_H-M    'P1' 
_symmetry_Int_Tables_number       1 
_symmetry_cell_setting            triclinic 
loop_ 
_symmetry_equiv_pos_as_xyz 
  x,y,z 
_cell_length_a                    21.3027485 
_cell_length_b                    17.930103205469532 
_cell_length_c                    38.993253950806924 
_cell_angle_alpha                 89.90926492266244 
_cell_angle_beta                  90.15734725750895 
_cell_angle_gamma                 122.09164918365265 
loop_ 
_atom_site_label 
_atom_site_type_symbol 
_atom_site_fract_x 
_atom_site_fract_y 
_atom_site_fract_z 
_atom_site_charge 
C1          C  0.31579394  0.21398199  0.28335714     0.48400
H2          H  0.32177611  0.21666696  0.31135003    -0.00600
C3          C  0.31579713  0.21428052  0.21735732     0.48500
H4          H  0.32211860  0.21756036  0.18942913    -0.00600
C5          C  0.30978714  0.13227602  0.26748198    -0.14300
C6          C  0.24681356  0.21126981  0.26846033    -0.14000
C7          C  0.38566347  0.29266014  0.26737773    -0.14400
C8          C  0.30979088  0.13243685  0.23314687    -0.14400
C9          C  0.24678974  0.21138970  0.23207543    -0.14000
C10         C  0.38559561  0.29278559  0.23344180    -0.14300
C11         C  0.13026332  0.34485630  0.28303319     0.48400
H12         H  0.13083391  0.34173717  0.31078750    -0.00600
C13         C  0.12988271  0.34529495  0.21729372     0.48500
H14         H  0.13005309  0.34262401  0.18951827    -0.00600
C15         C  0.05985614  0.34001406  0.26846270    -0.14300
C16         C  0.20019773  0.42775154  0.26819014    -0.14000
C17         C  0.13096786  0.26756197  0.26711372    -0.14400
C18         C  0.05966114  0.34024772  0.23200525    -0.14400
C19         C  0.19996363  0.42796199  0.23220378    -0.14000
C20         C  0.13088357  0.26785783  0.23298808    -0.14300
N21         N  0.18088091  0.17953862  0.21016069    -0.00500
C22         C  0.16171887  0.12818548  0.18128055     0.02100
C23         C  0.09243058  0.10527360  0.16983236    -0.20800
C24         C  0.07018435  0.14885634  0.18999815    -0.21000
C25         C  0.12591671  0.19586667  0.21329688     0.02000
H26         H  0.06670607  0.07341775  0.14576996     0.15800
H27         H  0.02238066  0.15321728  0.18588482     0.15800
N28         N  0.18090139  0.17932962  0.29017547    -0.00500
C29         C  0.16137019  0.12727324  0.31885499     0.02100
C30         C  0.09134871  0.10286156  0.32958309    -0.20800
C31         C  0.06920075  0.14655761  0.30927501    -0.21000
C32         C  0.12564168  0.19493678  0.28656345     0.02000
H33         H  0.06518983  0.07066288  0.35350156     0.15800
H34         H  0.02122093  0.15056259  0.31311796     0.15800
N35         N  0.26611991  0.48183009  0.28983461    -0.00500
C36         C  0.28874709  0.45634372  0.31799671     0.02100
C37         C  0.35846493  0.02326767  0.32830794    -0.20800
C38         C  0.37542196  0.09516884  0.30923689    -0.21000
C39         C  0.31800324  0.06875550  0.28682058     0.02000
H40         H  0.38677822  0.02541706  0.35176803     0.15800
H41         H  0.42034459  0.16186993  0.31352684     0.15800
N42         N  0.26562835  0.48210456  0.21055678    -0.00500
C43         C  0.28804749  0.45664558  0.18241433     0.02100
C44         C  0.35766287  0.02363620  0.17211411    -0.20800
C45         C  0.37503183  0.09538575  0.19133897    -0.21000
C46         C  0.31774633  0.06894355  0.21372455     0.02000
H47         H  0.38578944  0.02580253  0.14866901     0.15100
H48         H  0.42013949  0.16207778  0.18716442     0.15800
N49         N  0.00607125  0.33977772  0.20739435    -0.00500
C50         C  0.01741192  0.35255090  0.17265417     0.02100
C51         C  0.48017452  0.38940305  0.15931796    -0.20800
C52         C  0.43856806  0.39146907  0.18528235    -0.21000
C53         C  0.45126293  0.35534153  0.21366222     0.02000
H54         H  0.47228705  0.39710370  0.13237851     0.15800
H55         H  0.39186271  0.39881463  0.18165287     0.15800
N56         N  0.00650398  0.33918150  0.29318400    -0.00500
C57         C  0.01813401  0.35117907  0.32793711     0.02100
C58         C  0.48103889  0.38771672  0.34155800    -0.20800
C59         C  0.43926126  0.39049341  0.31572501    -0.21000
C60         C  0.45162100  0.35490195  0.28715974     0.02000
H61         H  0.47347780  0.39490711  0.36854930     0.15800
H62         H  0.39258070  0.39771612  0.31955462     0.15800
O63         O  0.11396379  0.00541198  0.04125099    -0.78800
C64         C  0.36662809  0.30324927  0.45454905     1.00500
O65         O  0.39826522  0.27549562  0.47304896    -0.67900
O66         O  0.03861425  0.36035646  0.45842136    -0.71500
Al67       Al  0.48595913  0.33581696  0.99984161     1.49000
C68         C  0.10260932  0.42547563  0.45287989     0.95800
O69         O  0.06736999  0.08576150  0.46058477    -0.77800
O70         O  0.44158170  0.01772023  0.04094125    -0.71300
Al71       Al  0.08535421  0.03955123  0.50082891     1.90100
O72         O  0.45244794  0.04723678  0.47029693    -0.70400
O73         O  0.35759923  0.34656199  0.03091356    -0.70200
O74         O  0.37471599  0.37697223  0.46014272    -0.75900
O75         O  0.43284305  0.30004912  0.04126754    -0.74100
O76         O  0.49463400  0.44104635  0.00043953    -1.10200
O77         O  0.07189435  0.36896373  0.02641477    -0.69400
C78         C  0.11067436  0.43382227  0.04564945     1.01300
C79         C  0.51175329  0.09007011  0.45324444     0.97700
Al80       Al  0.41323248  0.44656922  0.00058472     1.55600
O81         O  0.12996932  0.99460199  0.47088287    -0.74000
C82         C  0.37558426  0.30074080  0.04818882     1.01900
C83         C  0.50333920  0.08571818  0.04800143     0.96700
O84         O  0.06029892  0.10558971  0.03080939    -0.79400
C85         C  0.52763225  0.29331218  0.35057879    -0.15500
C86         C  0.52583420  0.24462337  0.37276182     0.08500
C87         C  0.52060329  0.18991627  0.40055542     0.10400
C88         C  0.51604817  0.14453299  0.42471742    -0.16400
C89         C  0.50950731  0.14169131  0.07630177    -0.15500
C90         C  0.51603439  0.18902818  0.10006984     0.08500
C91         C  0.52334262  0.24560809  0.12751225     0.10400
C92         C  0.02625380  0.29479890  0.14971839    -0.16400
C93         C  0.14980192  0.42353878  0.07333899    -0.15500
C94         C  0.17741058  0.40932578  0.09745503     0.08500
C95         C  0.20809862  0.39794759  0.12759616     0.10400
C96         C  0.23971157  0.40786388  0.15442211    -0.16400
C97         C  0.24063021  0.40864928  0.34609517    -0.15500
C98         C  0.20860289  0.39895093  0.37268544     0.08500
C99         C  0.17582490  0.40839718  0.40235609     0.10400
C100        C  0.14509870  0.41910331  0.42595532    -0.16400
C101        C  0.32239845  0.25004601  0.42620808    -0.15500
C102        C  0.28866813  0.20687111  0.40145743     0.08500
C103        C  0.24905694  0.16317539  0.37141303     0.10400
C104        C  0.21197173  0.13772321  0.34566045    -0.16400
C105        C  0.33015325  0.24768894  0.07626765    -0.15500
C106        C  0.29424687  0.20475181  0.10062360     0.08500
C107        C  0.25161440  0.16143658  0.13001758     0.10400
C108        C  0.21279784  0.13684273  0.15517266    -0.16400
C109        C  0.31574789  0.21399602  0.78329965     0.48400
H110        H  0.32171923  0.21671654  0.81129435    -0.00600
C111        C  0.31577224  0.21423230  0.71730053     0.48500
H112        H  0.32211198  0.21747976  0.68937547    -0.00600
C113        C  0.30974148  0.13226737  0.76744467    -0.14300
C114        C  0.24676773  0.21126241  0.76838838    -0.14000
C115        C  0.38562190  0.29266346  0.76731069    -0.14400
C116        C  0.30975914  0.13240531  0.73310947    -0.14400
C117        C  0.24676763  0.21137212  0.73200293    -0.14000
C118        C  0.38556406  0.29274777  0.73337492    -0.14300
C119        C  0.13017764  0.34477603  0.78297191     0.48400
H120        H  0.13070219  0.34157986  0.81072502    -0.00600
C121        C  0.12988044  0.34532673  0.71723293     0.48500
H122        H  0.13009640  0.34273328  0.68945743    -0.00600
C123        C  0.05979468  0.33996608  0.76839535    -0.14300
C124        C  0.20012357  0.42770738  0.76815516    -0.14000
C125        C  0.13090034  0.26750978  0.76703368    -0.14400
C126        C  0.05963742  0.34025126  0.73193799    -0.14400
C127        C  0.19994973  0.42795778  0.73216904    -0.14000
C128        C  0.13086035  0.26786007  0.73290847    -0.14300
N129        N  0.18088881  0.17957154  0.71007199    -0.00500
C130        C  0.16175412  0.12824858  0.68118381     0.02100
C131        C  0.09246952  0.10533139  0.66972883    -0.20800
C132        C  0.07020638  0.14889680  0.68989596    -0.21000
C133        C  0.12592228  0.19589867  0.71320289     0.02000
H134        H  0.06675444  0.07347370  0.64566576     0.15800
H135        H  0.02239572  0.15324109  0.68578170     0.15800
N136        N  0.18083184  0.17928434  0.79009137    -0.00500
C137        C  0.16128924  0.12722186  0.81876908     0.02100
C138        C  0.09125669  0.10279213  0.82948746    -0.20800
C139        C  0.06910308  0.14646950  0.80917247    -0.21000
C140        C  0.12555774  0.19486245  0.78646859     0.02000
H141        H  0.06509362  0.07059950  0.85340602     0.15800
H142        H  0.02111351  0.15046639  0.81300948     0.15800
N143        N  0.26599209  0.48181048  0.78982683    -0.00500
C144        C  0.28854190  0.45633688  0.81802036     0.02100
C145        C  0.35825923  0.02323430  0.82834132    -0.20800
C146        C  0.37528462  0.09512232  0.80924385    -0.21000
C147        C  0.31790882  0.06872549  0.78680305     0.02000
H148        H  0.38652486  0.02539146  0.85181877     0.15800
H149        H  0.42022503  0.16181286  0.81352831     0.15800
N150        N  0.26566769  0.48207299  0.71054899    -0.00500
C151        C  0.28815950  0.45659494  0.68243775     0.02100
C152        C  0.35776585  0.02361384  0.67213963    -0.20800
C153        C  0.37507092  0.09538047  0.69133668    -0.21000
C154        C  0.31775220  0.06892538  0.71370408     0.02000
H155        H  0.38593386  0.02576566  0.64871090     0.15100
H156        H  0.42016284  0.16208080  0.68715435     0.15800
N157        N  0.00606177  0.33979491  0.70732256    -0.00500
C158        C  0.01741021  0.35256869  0.67258252     0.02100
C159        C  0.48013287  0.38935924  0.65923739    -0.20800
C160        C  0.43849393  0.39138009  0.68519602    -0.21000
C161        C  0.45121716  0.35530174  0.71358369     0.02000
H162        H  0.47224544  0.39704056  0.63229642     0.15800
H163        H  0.39175231  0.39864858  0.68155698     0.15800
N164        N  0.00643569  0.33913228  0.79311271    -0.00500
C165        C  0.01805424  0.35111971  0.82786625     0.02100
C166        C  0.48099708  0.38771383  0.84148010    -0.20800
C167        C  0.43925385  0.39054118  0.81564157    -0.21000
C168        C  0.45158908  0.35490874  0.78708223     0.02000
H169        H  0.47343316  0.39491465  0.86846988     0.15800
H170        H  0.39260773  0.39783839  0.81946272     0.15800
O171        O  0.11441274  0.00545533  0.54125134    -0.78800
C172        C  0.36621183  0.30310599  0.95454854     1.00500
O173        O  0.39786844  0.27537816  0.97304827    -0.67900
O174        O  0.03821170  0.36028550  0.95842764    -0.71500
Al175      Al  0.48636963  0.33590512  0.49983748     1.49000
C176        C  0.10218580  0.42543367  0.95287765     0.95800
O177        O  0.06687621  0.08563200  0.96058236    -0.77800
O178        O  0.44206782  0.01786050  0.54093915    -0.71300
Al179      Al  0.08488396  0.03946477  0.00082699     1.90100
O180        O  0.45194352  0.04707363  0.97028704    -0.70400
O181        O  0.35804927  0.34671574  0.53090707    -0.70200
O182        O  0.37425132  0.37680236  0.96014751    -0.75900
O183        O  0.43325906  0.30015962  0.54127081    -0.74100
O184        O  0.49508847  0.44115791  0.50043828    -1.10200
O185        O  0.07230388  0.36900664  0.52639993    -0.69400
C186        C  0.11110141  0.43384781  0.54563863     1.01300
C187        C  0.51124844  0.08990556  0.95323246     0.97700
Al188      Al  0.41370868  0.44672192  0.50058360     1.55600
O189        O  0.12952803  0.99455458  0.97088195    -0.74000
C190        C  0.37600923  0.30087894  0.54818745     1.01900
C191        C  0.50382652  0.08585568  0.54799751     0.96700
O192        O  0.06079285  0.10570191  0.53081437    -0.79400
C193        C  0.52746231  0.29318733  0.85051073    -0.15500
C194        C  0.52555748  0.24445228  0.87270156     0.08500
C195        C  0.52018781  0.18971441  0.90051159     0.10400
C196        C  0.51554731  0.14433123  0.92469022    -0.16400
C197        C  0.50996891  0.14186014  0.57627972    -0.15500
C198        C  0.51639693  0.18919087  0.60003118     0.08500
C199        C  0.52355267  0.24573672  0.62745629     0.10400
C200        C  0.02634729  0.29488106  0.64965263    -0.16400
C201        C  0.15020550  0.42350697  0.57332334    -0.15500
C202        C  0.17775198  0.40920898  0.59744167     0.08500
C203        C  0.20834018  0.39775125  0.62760032     0.10400
C204        C  0.23988260  0.40768533  0.65444834    -0.16400
C205        C  0.24036004  0.40873486  0.84611335    -0.15500
C206        C  0.20826866  0.39904983  0.87268276     0.08500
C207        C  0.17542465  0.40844924  0.90233910     0.10400
C208        C  0.14467301  0.41910513  0.92594047    -0.16400
C209        C  0.32203642  0.24991449  0.92619486    -0.15500
C210        C  0.28839111  0.20676447  0.90142547     0.08500
C211        C  0.24889337  0.16310671  0.87135446     0.10400
C212        C  0.21187285  0.13767434  0.84558298    -0.16400
C213        C  0.33054242  0.24783209  0.57626057    -0.15500
C214        C  0.29453913  0.20489103  0.60059667     0.08500
C215        C  0.25176279  0.16155262  0.62995509     0.10400
C216        C  0.21286156  0.13693479  0.65508328    -0.16400
C217        C  0.31579337  0.71398245  0.28335496     0.48400
H218        H  0.32177645  0.71666603  0.31134776    -0.00600
C219        C  0.31579452  0.71428232  0.21735509     0.48500
H220        H  0.32211488  0.71756203  0.18942682    -0.00600
C221        C  0.30978720  0.63227757  0.26747900    -0.14300
C222        C  0.24681218  0.71127015  0.26845896    -0.14000
C223        C  0.38566199  0.79266174  0.26737523    -0.14400
C224        C  0.30978924  0.63243907  0.23314405    -0.14400
C225        C  0.24678731  0.71139071  0.23207386    -0.14000
C226        C  0.38559354  0.79278732  0.23343929    -0.14300
C227        C  0.13026039  0.84485556  0.28303284     0.48400
H228        H  0.13082841  0.84173543  0.31078746    -0.00600
C229        C  0.12988307  0.84529727  0.21729346     0.48500
H230        H  0.13005525  0.84262826  0.18951798    -0.00600
C231        C  0.05985496  0.84001663  0.26846155    -0.14300
C232        C  0.20019755  0.92774976  0.26819095    -0.14000
C233        C  0.13096362  0.76756033  0.26711331    -0.14400
C234        C  0.05966158  0.84025242  0.23200417    -0.14400
C235        C  0.19996510  0.92796189  0.23220461    -0.14000
C236        C  0.13088020  0.76785733  0.23298767    -0.14300
N237        N  0.18087846  0.67954077  0.21015902    -0.00500
C238        C  0.16171698  0.62819069  0.18127795     0.02100
C239        C  0.09242774  0.60527770  0.16983054    -0.20800
C240        C  0.07018008  0.64885624  0.18999797    -0.21000
C241        C  0.12591300  0.69586646  0.21329630     0.02000
H242        H  0.06670360  0.57342415  0.14576818     0.15800
H243        H  0.02237430  0.65321527  0.18588588     0.15800
N244        N  0.18090181  0.67933288  0.29017527    -0.00500
C245        C  0.16137347  0.62728086  0.31885600     0.02100
C246        C  0.09135117  0.60286627  0.32958416    -0.20800
C247        C  0.06920085  0.64655840  0.30927533    -0.21000
C248        C  0.12563985  0.69493635  0.28656293     0.02000
H249        H  0.06519366  0.57066950  0.35350297     0.15800
H250        H  0.02122130  0.65056390  0.31311874     0.15800
N251        N  0.26611943  0.98182618  0.28983619    -0.00500
C252        C  0.28874499  0.95633813  0.31799856     0.02100
C253        C  0.35847309  0.52326917  0.32830103    -0.20800
C254        C  0.37543043  0.59516898  0.30922857    -0.21000
C255        C  0.31800606  0.56875714  0.28681607     0.02000
H256        H  0.38678960  0.52542153  0.35176020     0.15800
H257        H  0.42035491  0.66186936  0.31351659     0.15800
N258        N  0.26563212  0.98210353  0.21055887    -0.00500
C259        C  0.28805461  0.95664453  0.18241755     0.02100
C260        C  0.35765482  0.52363671  0.17210969    -0.20800
C261        C  0.37502483  0.59538714  0.19133409    -0.21000
C262        C  0.31774198  0.56894525  0.21372103     0.02000
H263        H  0.38577858  0.52580297  0.14866410     0.15100
H264        H  0.42013232  0.66207856  0.18715899     0.15800
N265        N  0.00607202  0.83978288  0.20739286    -0.00500
C266        C  0.01741119  0.85255108  0.17265250     0.02100
C267        C  0.48016981  0.88939662  0.15931459    -0.20800
C268        C  0.43856253  0.89146320  0.18527825    -0.21000
C269        C  0.45126077  0.85534297  0.21365943     0.02000
H270        H  0.47227959  0.89709128  0.13237488     0.15800
H271        H  0.39185459  0.89880218  0.18164778     0.15800
N272        N  0.00650203  0.83918448  0.29318202    -0.00500
C273        C  0.01812977  0.85118084  0.32793528     0.02100
C274        C  0.48103360  0.88771879  0.34155546    -0.20800
C275        C  0.43925847  0.89049736  0.31572174    -0.21000
C276        C  0.45161931  0.85490564  0.28715689     0.02000
H277        H  0.47347100  0.89490872  0.36854692     0.15800
H278        H  0.39257708  0.89772065  0.31955042     0.15800
O279        O  0.11394390  0.50541215  0.04124955    -0.78800
C280        C  0.36664696  0.80325520  0.45454909     1.00500
O281        O  0.39828455  0.77550043  0.47304804    -0.67900
O282        O  0.03863319  0.86035791  0.45842311    -0.71500
Al283      Al  0.48597629  0.83581857  0.99984235     1.49000
C284        C  0.10262807  0.92547589  0.45288104     0.95800
O285        O  0.06734849  0.58575683  0.46058353    -0.77800
O286        O  0.44156064  0.51771350  0.04094045    -0.71300
Al287      Al  0.08533360  0.53954895  0.50082764     1.90100
O288        O  0.45242620  0.54723183  0.47029589    -0.70400
O289        O  0.35761795  0.84656787  0.03091405    -0.70200
O290        O  0.37473589  0.87697830  0.46014351    -0.75900
O291        O  0.43285632  0.80004749  0.04126766    -0.74100
O292        O  0.49465354  0.94104954  0.00044067    -1.10200
O293        O  0.07190880  0.86896160  0.02641686    -0.69400
C294        C  0.11069005  0.93381960  0.04565152     1.01300
C295        C  0.51173171  0.59006554  0.45324342     0.97700
Al296      Al  0.41325319  0.94657486  0.00058559     1.55600
O297        O  0.12994920  0.49460075  0.47088209    -0.74000
C298        C  0.37559870  0.80074190  0.04818870     1.01900
C299        C  0.50331809  0.58571124  0.04800068     0.96700
O300        O  0.06027709  0.60558582  0.03080768    -0.79400
C301        C  0.52762519  0.79331260  0.35057710    -0.15500
C302        C  0.52582370  0.74462232  0.37276031     0.08500
C303        C  0.52058747  0.68991319  0.40055404     0.10400
C304        C  0.51602762  0.64452862  0.42471642    -0.16400
C305        C  0.50948769  0.64168107  0.07630236    -0.15500
C306        C  0.51602037  0.68901837  0.10007110     0.08500
C307        C  0.52333716  0.74560201  0.12751328     0.10400
C308        C  0.02625303  0.79479671  0.14971864    -0.16400
C309        C  0.14981323  0.92353123  0.07334187    -0.15500
C310        C  0.17741962  0.90931452  0.09745789     0.08500
C311        C  0.20810743  0.89793587  0.12759914     0.10400
C312        C  0.23972075  0.90785677  0.15442542    -0.16400
C313        C  0.24062460  0.90862400  0.34609318    -0.15500
C314        C  0.20859884  0.89892170  0.37268420     0.08500
C315        C  0.17583073  0.90837930  0.40235604     0.10400
C316        C  0.14511410  0.91909843  0.42595609    -0.16400
C317        C  0.32241415  0.75005279  0.42620857    -0.15500
C318        C  0.28867877  0.70688057  0.40145824     0.08500
C319        C  0.24906321  0.66318829  0.37141410     0.10400
C320        C  0.21197684  0.63773687  0.34566175    -0.16400
C321        C  0.33016348  0.74768747  0.07626632    -0.15500
C322        C  0.29425178  0.70475086  0.10062143     0.08500
C323        C  0.25161391  0.66143863  0.13001478     0.10400
C324        C  0.21279577  0.63684773  0.15516955    -0.16400
C325        C  0.31574757  0.71399660  0.78329730     0.48400
H326        H  0.32171964  0.71671516  0.81129182    -0.00600
C327        C  0.31576951  0.71423423  0.71729825     0.48500
H328        H  0.32210799  0.71748093  0.68937324    -0.00600
C329        C  0.30974184  0.63226900  0.76744152    -0.14300
C330        C  0.24676644  0.71126299  0.76838684    -0.14000
C331        C  0.38562081  0.79266535  0.76730806    -0.14400
C332        C  0.30975695  0.63240726  0.73310651    -0.14400
C333        C  0.24676510  0.71137319  0.73200126    -0.14000
C334        C  0.38556224  0.79274979  0.73337235    -0.14300
C335        C  0.13017466  0.84477501  0.78297148     0.48400
H336        H  0.13069656  0.84157727  0.81072491    -0.00600
C337        C  0.12988066  0.84532915  0.71723259     0.48500
H338        H  0.13009844  0.84273808  0.68945670    -0.00600
C339        C  0.05979362  0.83996878  0.76839413    -0.14300
C340        C  0.20012336  0.92770522  0.76815597    -0.14000
C341        C  0.13089622  0.76750813  0.76703313    -0.14400
C342        C  0.05963781  0.84025577  0.73193684    -0.14400
C343        C  0.19995105  0.92795739  0.73216987    -0.14000
C344        C  0.13085698  0.76785967  0.73290785    -0.14300
N345        N  0.18088641  0.67957387  0.71007011    -0.00500
C346        C  0.16175227  0.62825394  0.68118099     0.02100
C347        C  0.09246666  0.60533553  0.66972677    -0.20800
C348        C  0.07020187  0.64889633  0.68989554    -0.21000
C349        C  0.12591845  0.69589832  0.71320217     0.02000
H350        H  0.06675142  0.57347956  0.64566366     0.15800
H351        H  0.02238856  0.65323762  0.68578262     0.15800
N352        N  0.18083246  0.67928771  0.79009099    -0.00500
C353        C  0.16129314  0.62722965  0.81876993     0.02100
C354        C  0.09125992  0.60279618  0.82948839    -0.20800
C355        C  0.06910366  0.64646964  0.80917272    -0.21000
C356        C  0.12555606  0.69486158  0.78646777     0.02000
H357        H  0.06509871  0.57060637  0.85340743     0.15800
H358        H  0.02111459  0.65046531  0.81301013     0.15800
N359        N  0.26599147  0.98180641  0.78982838    -0.00500
C360        C  0.28853934  0.95633067  0.81802200     0.02100
C361        C  0.35826794  0.52323662  0.82833461    -0.20800
C362        C  0.37529319  0.59512270  0.80923546    -0.21000
C363        C  0.31791177  0.56872692  0.78679834     0.02000
H364        H  0.38653784  0.52539805  0.85181163     0.15800
H365        H  0.42023453  0.66181236  0.81351751     0.15800
N366        N  0.26567130  0.98207192  0.71055125    -0.00500
C367        C  0.28816637  0.95659418  0.68244115     0.02100
C368        C  0.35775791  0.52361415  0.67213488    -0.20800
C369        C  0.37506377  0.59538165  0.69133141    -0.21000
C370        C  0.31774781  0.56892707  0.71370035     0.02000
H371        H  0.38592342  0.52576579  0.64870523     0.15100
H372        H  0.42015499  0.66208163  0.68714833     0.15800
N373        N  0.00606246  0.83979971  0.70732114    -0.00500
C374        C  0.01740992  0.85256914  0.67258101     0.02100
C375        C  0.48012831  0.88935309  0.65923391    -0.20800
C376        C  0.43848857  0.89137437  0.68519180    -0.21000
C377        C  0.45121524  0.85530337  0.71358084     0.02000
H378        H  0.47223895  0.89702962  0.63229257     0.15800
H379        H  0.39174451  0.89863626  0.68155167     0.15800
N380        N  0.00643375  0.83913510  0.79311067    -0.00500
C381        C  0.01804975  0.85112091  0.82786443     0.02100
C382        C  0.48099167  0.88771544  0.84147760    -0.20800
C383        C  0.43925138  0.89054507  0.81563819    -0.21000
C384        C  0.45158789  0.85491248  0.78707925     0.02000
H385        H  0.47342506  0.89491561  0.86846753     0.15800
H386        H  0.39260569  0.89784344  0.81945801     0.15800
O387        O  0.11439316  0.50545557  0.54124989    -0.78800
C388        C  0.36623076  0.80311225  0.95454864     1.00500
O389        O  0.39788806  0.77538348  0.97304732    -0.67900
O390        O  0.03823084  0.86028693  0.95842941    -0.71500
Al391      Al  0.48638662  0.83590636  0.49983818     1.49000
C392        C  0.10220477  0.92543387  0.95287882     0.95800
O393        O  0.06685413  0.58562678  0.96058115    -0.77800
O394        O  0.44204684  0.51785390  0.54093843    -0.71300
Al395      Al  0.08486305  0.53946236  0.00082575     1.90100
O396        O  0.45192172  0.54706839  0.97028596    -0.70400
O397        O  0.35806769  0.84672121  0.53090763    -0.70200
O398        O  0.37427146  0.87680878  0.96014836    -0.75900
O399        O  0.43327248  0.80015789  0.54127094    -0.74100
O400        O  0.49510782  0.94116076  0.50043927    -1.10200
O401        O  0.07231845  0.86900449  0.52640191    -0.69400
C402        C  0.11111680  0.93384501  0.54564072     1.01300
C403        C  0.51122676  0.58990032  0.95323130     0.97700
Al404      Al  0.41372923  0.94672732  0.50058444     1.55600
O405        O  0.12950785  0.49455318  0.97088136    -0.74000
C406        C  0.37602347  0.80087948  0.54818726     1.01900
C407        C  0.50380557  0.58584877  0.54799689     0.96700
O408        O  0.06077121  0.60569793  0.53081277    -0.79400
C409        C  0.52745496  0.79318710  0.85050912    -0.15500
C410        C  0.52554694  0.74445039  0.87269994     0.08500
C411        C  0.52017174  0.68971076  0.90051017     0.10400
C412        C  0.51552684  0.64432619  0.92468903    -0.16400
C413        C  0.50994969  0.64184994  0.57628031    -0.15500
C414        C  0.51638328  0.68918109  0.60003243     0.08500
C415        C  0.52354716  0.74573061  0.62745730     0.10400
C416        C  0.02634676  0.79487913  0.64965286    -0.16400
C417        C  0.15021688  0.92349956  0.57332620    -0.15500
C418        C  0.17776093  0.90919774  0.59744459     0.08500
C419        C  0.20834924  0.89774008  0.62760338     0.10400
C420        C  0.23989209  0.90767884  0.65445171    -0.16400
C421        C  0.24035431  0.90870898  0.84611138    -0.15500
C422        C  0.20826472  0.89902013  0.87268163     0.08500
C423        C  0.17543043  0.90843113  0.90233910     0.10400
C424        C  0.14468873  0.91910058  0.92594128    -0.16400
C425        C  0.32205223  0.74992194  0.92619531    -0.15500
C426        C  0.28840200  0.70677485  0.90142617     0.08500
C427        C  0.24889986  0.66312043  0.87135549     0.10400
C428        C  0.21187836  0.63768860  0.84558424    -0.16400
C429        C  0.33055239  0.74783010  0.57625914    -0.15500
C430        C  0.29454386  0.70488939  0.60059435     0.08500
C431        C  0.25176212  0.66155430  0.62995213     0.10400
C432        C  0.21285954  0.63693963  0.65508006    -0.16400
C433        C  0.81579365  0.21398189  0.28335714     0.48400
H434        H  0.82177576  0.21666685  0.31135004    -0.00600
C435        C  0.81579693  0.21428035  0.21735732     0.48500
H436        H  0.82211787  0.21756031  0.18942912    -0.00600
C437        C  0.80978682  0.13227588  0.26748201    -0.14300
C438        C  0.74681345  0.21126977  0.26846033    -0.14000
C439        C  0.88566320  0.29266007  0.26737770    -0.14400
C440        C  0.80979081  0.13243679  0.23314689    -0.14400
C441        C  0.74678955  0.21138951  0.23207543    -0.14000
C442        C  0.88559552  0.29278550  0.23344175    -0.14300
C443        C  0.63026325  0.34485629  0.28303320     0.48400
H444        H  0.63083367  0.34173729  0.31078755    -0.00600
C445        C  0.62988287  0.34529497  0.21729373     0.48500
H446        H  0.63005330  0.34262380  0.18951825    -0.00600
C447        C  0.55985629  0.34001414  0.26846266    -0.14300
C448        C  0.70019782  0.42775144  0.26819018    -0.14000
C449        C  0.63096779  0.26756193  0.26711377    -0.14400
C450        C  0.55966133  0.34024785  0.23200522    -0.14400
C451        C  0.69996369  0.42796200  0.23220378    -0.14000
C452        C  0.63088366  0.26785790  0.23298813    -0.14300
N453        N  0.68088071  0.17953865  0.21016070    -0.00500
C454        C  0.66171876  0.12818563  0.18128066     0.02100
C455        C  0.59243027  0.10527393  0.16983260    -0.20800
C456        C  0.57018395  0.14885671  0.18999827    -0.21000
C457        C  0.62591624  0.19586668  0.21329691     0.02000
H458        H  0.56670614  0.07341802  0.14577056     0.15800
H459        H  0.52237917  0.15321766  0.18588475     0.15800
N460        N  0.68090127  0.17932960  0.29017550    -0.00500
C461        C  0.66137004  0.12727323  0.31885498     0.02100
C462        C  0.59134829  0.10286159  0.32958309    -0.20800
C463        C  0.56920034  0.14655761  0.30927510    -0.21000
C464        C  0.62564130  0.19493665  0.28656352     0.02000
H465        H  0.56518958  0.07066273  0.35350154     0.15800
H466        H  0.52121946  0.15056262  0.31311820     0.15800
N467        N  0.76612000  0.48183018  0.28983465    -0.00500
C468        C  0.78874705  0.45634385  0.31799675     0.02100
C469        C  0.85846485  0.02326756  0.32830779    -0.20800
C470        C  0.87542199  0.09516900  0.30923685    -0.21000
C471        C  0.81800320  0.06875555  0.28682058     0.02000
H472        H  0.88677767  0.02541703  0.35176776     0.15800
H473        H  0.92034485  0.16186999  0.31352687     0.15800
N474        N  0.76562843  0.48210449  0.21055674    -0.00500
C475        C  0.78804777  0.45664552  0.18241426     0.02100
C476        C  0.85766283  0.02363605  0.17211410    -0.20800
C477        C  0.87503181  0.09538570  0.19133893    -0.21000
C478        C  0.81774619  0.06894348  0.21372452     0.02000
H479        H  0.88578920  0.02580242  0.14866887     0.15100
H480        H  0.92013926  0.16207763  0.18716427     0.15800
N481        N  0.50607143  0.33977790  0.20739436    -0.00500
C482        C  0.51741195  0.35255095  0.17265417     0.02100
C483        C  0.98017449  0.38940309  0.15931793    -0.20800
C484        C  0.93856794  0.39146892  0.18528226    -0.21000
C485        C  0.95126294  0.35534171  0.21366220     0.02000
H486        H  0.97228721  0.39710428  0.13237854     0.15800
H487        H  0.89186241  0.39881439  0.18165267     0.15800
N488        N  0.50650405  0.33918121  0.29318395    -0.00500
C489        C  0.51813426  0.35117892  0.32793706     0.02100
C490        C  0.98103835  0.38771680  0.34155799    -0.20800
C491        C  0.93926074  0.39049324  0.31572501    -0.21000
C492        C  0.95162055  0.35490193  0.28715978     0.02000
H493        H  0.97347710  0.39490699  0.36854938     0.15800
H494        H  0.89257917  0.39771573  0.31955458     0.15800
O495        O  0.61396375  0.00541199  0.04125096    -0.78800
C496        C  0.86662822  0.30324948  0.45454902     1.00500
O497        O  0.89826514  0.27549564  0.47304902    -0.67900
O498        O  0.53861420  0.36035635  0.45842145    -0.71500
Al499      Al  0.98595904  0.33581707  0.99984160     1.49000
C500        C  0.60260913  0.42547569  0.45287986     0.95800
O501        O  0.56737009  0.08576156  0.46058478    -0.77800
O502        O  0.94158181  0.01772027  0.04094119    -0.71300
Al503      Al  0.58535418  0.03955123  0.50082891     1.90100
O504        O  0.95244786  0.04723675  0.47029694    -0.70400
O505        O  0.85759943  0.34656239  0.03091350    -0.70200
O506        O  0.87471614  0.37697256  0.46014263    -0.75900
O507        O  0.93284288  0.30004931  0.04126754    -0.74100
O508        O  0.99463386  0.44104643  0.00043950    -1.10200
O509        O  0.57189436  0.36896361  0.02641488    -0.69400
C510        C  0.61067444  0.43382228  0.04564949     1.01300
C511        C  0.01175316  0.09007010  0.45324445     0.97700
Al512      Al  0.91323238  0.44656923  0.00058467     1.55600
O513        O  0.62996927  0.99460195  0.47088286    -0.74000
C514        C  0.87558428  0.30074117  0.04818884     1.01900
C515        C  0.00333922  0.08571820  0.04800142     0.96700
O516        O  0.56029894  0.10558977  0.03080937    -0.79400
C517        C  0.02763207  0.29331225  0.35057883    -0.15500
C518        C  0.02583418  0.24462341  0.37276181     0.08500
C519        C  0.02060325  0.18991627  0.40055541     0.10400
C520        C  0.01604788  0.14453292  0.42471744    -0.16400
C521        C  0.00950741  0.14169131  0.07630182    -0.15500
C522        C  0.01603461  0.18902825  0.10006988     0.08500
C523        C  0.02334256  0.24560804  0.12751225     0.10400
C524        C  0.52625380  0.29479900  0.14971838    -0.16400
C525        C  0.64980196  0.42353868  0.07333899    -0.15500
C526        C  0.67741046  0.40932571  0.09745509     0.08500
C527        C  0.70809879  0.39794762  0.12759612     0.10400
C528        C  0.73971166  0.40786399  0.15442209    -0.16400
C529        C  0.74063005  0.40864922  0.34609514    -0.15500
C530        C  0.70860293  0.39895096  0.37268545     0.08500
C531        C  0.67582480  0.40839724  0.40235603     0.10400
C532        C  0.64509866  0.41910333  0.42595531    -0.16400
C533        C  0.82239834  0.25004595  0.42620810    -0.15500
C534        C  0.78866801  0.20687136  0.40145740     0.08500
C535        C  0.74905682  0.16317549  0.37141305     0.10400
C536        C  0.71197173  0.13772331  0.34566044    -0.16400
C537        C  0.83015340  0.24768926  0.07626770    -0.15500
C538        C  0.79424688  0.20475213  0.10062363     0.08500
C539        C  0.75161419  0.16143683  0.13001754     0.10400
C540        C  0.71279765  0.13684280  0.15517263    -0.16400
C541        C  0.81574762  0.21399584  0.78329961     0.48400
H542        H  0.82171864  0.21671567  0.81129425    -0.00600
C543        C  0.81577235  0.21423230  0.71730057     0.48500
H544        H  0.82211236  0.21747910  0.68937559    -0.00600
C545        C  0.80974145  0.13226733  0.76744468    -0.14300
C546        C  0.74676756  0.21126244  0.76838838    -0.14000
C547        C  0.88562192  0.29266334  0.76731067    -0.14400
C548        C  0.80975918  0.13240527  0.73310956    -0.14400
C549        C  0.74676754  0.21137216  0.73200300    -0.14000
C550        C  0.88556424  0.29274798  0.73337491    -0.14300
C551        C  0.63017767  0.34477595  0.78297189     0.48400
H552        H  0.63070219  0.34157963  0.81072499    -0.00600
C553        C  0.62988037  0.34532664  0.71723297     0.48500
H554        H  0.63009626  0.34273314  0.68945750    -0.00600
C555        C  0.55979472  0.33996602  0.76839537    -0.14300
C556        C  0.70012372  0.42770739  0.76815516    -0.14000
C557        C  0.63090041  0.26750968  0.76703367    -0.14400
C558        C  0.55963732  0.34025116  0.73193807    -0.14400
C559        C  0.69994985  0.42795773  0.73216904    -0.14000
C560        C  0.63086052  0.26786008  0.73290848    -0.14300
N561        N  0.68088894  0.17957186  0.71007200    -0.00500
C562        C  0.66175445  0.12824884  0.68118391     0.02100
C563        C  0.59246995  0.10533162  0.66972881    -0.20800
C564        C  0.57020658  0.14889674  0.68989597    -0.21000
C565        C  0.62592225  0.19589866  0.71320294     0.02000
H566        H  0.56675535  0.07347404  0.64566587     0.15800
H567        H  0.52239549  0.15324075  0.68578169     0.15800
N568        N  0.68083178  0.17928430  0.79009139    -0.00500
C569        C  0.66128941  0.12722191  0.81876909     0.02100
C570        C  0.59125681  0.10279191  0.82948745    -0.20800
C571        C  0.56910323  0.14646928  0.80917250    -0.21000
C572        C  0.62555770  0.19486224  0.78646856     0.02000
H573        H  0.56509367  0.07059940  0.85340596     0.15800
H574        H  0.52111319  0.15046517  0.81300946     0.15800
N575        N  0.76599220  0.48181066  0.78982688    -0.00500
C576        C  0.78854192  0.45633695  0.81802038     0.02100
C577        C  0.85825895  0.02323411  0.82834119    -0.20800
C578        C  0.87528436  0.09512224  0.80924373    -0.21000
C579        C  0.81790854  0.06872532  0.78680303     0.02000
H580        H  0.88652413  0.02539139  0.85181857     0.15800
H581        H  0.92022431  0.16181252  0.81352822     0.15800
N582        N  0.76566781  0.48207302  0.71054897    -0.00500
C583        C  0.78815962  0.45659508  0.68243769     0.02100
C584        C  0.85776572  0.02361387  0.67213978    -0.20800
C585        C  0.87507082  0.09538046  0.69133688    -0.21000
C586        C  0.81775196  0.06892517  0.71370417     0.02000
H587        H  0.88593325  0.02576613  0.64871100     0.15100
H588        H  0.92016299  0.16208045  0.68715486     0.15800
N589        N  0.50606159  0.33979455  0.70732269    -0.00500
C590        C  0.51741064  0.35256868  0.67258278     0.02100
C591        C  0.98013241  0.38935924  0.65923714    -0.20800
C592        C  0.93849373  0.39137991  0.68519577    -0.21000
C593        C  0.95121731  0.35530192  0.71358355     0.02000
H594        H  0.97224416  0.39704029  0.63229566     0.15800
H595        H  0.89175201  0.39864826  0.68155698     0.15800
N596        N  0.50643583  0.33913203  0.79311270    -0.00500
C597        C  0.51805445  0.35111955  0.82786622     0.02100
C598        C  0.98099654  0.38771402  0.84148007    -0.20800
C599        C  0.93925325  0.39054114  0.81564153    -0.21000
C600        C  0.95158872  0.35490883  0.78708225     0.02000
H601        H  0.97343242  0.39491473  0.86846993     0.15800
H602        H  0.89260587  0.39783752  0.81946262     0.15800
O603        O  0.61441262  0.00545525  0.54125134    -0.78800
C604        C  0.86621174  0.30310586  0.95454857     1.00500
O605        O  0.89786831  0.27537804  0.97304835    -0.67900
O606        O  0.53821181  0.36028548  0.95842770    -0.71500
Al607      Al  0.98636961  0.33590504  0.49983745     1.49000
C608        C  0.60218590  0.42543370  0.95287767     0.95800
O609        O  0.56687599  0.08563167  0.96058239    -0.77800
O610        O  0.94206798  0.01786068  0.54093913    -0.71300
Al611      Al  0.58488379  0.03946468  0.00082702     1.90100
O612        O  0.95194361  0.04707369  0.97028696    -0.70400
O613        O  0.85804908  0.34671566  0.53090700    -0.70200
O614        O  0.87425126  0.37680231  0.96014743    -0.75900
O615        O  0.93325905  0.30015972  0.54127087    -0.74100
O616        O  0.99508835  0.44115769  0.50043823    -1.10200
O617        O  0.57230389  0.36900654  0.52640007    -0.69400
C618        C  0.61110134  0.43384780  0.54563868     1.01300
C619        C  0.01124862  0.08990578  0.95323240     0.97700
Al620      Al  0.91370880  0.44672207  0.50058355     1.55600
O621        O  0.62952811  0.99455462  0.97088209    -0.74000
C622        C  0.87600928  0.30087922  0.54818747     1.01900
C623        C  0.00382673  0.08585566  0.54799756     0.96700
O624        O  0.56079269  0.10570178  0.53081441    -0.79400
C625        C  0.02746206  0.29318715  0.85051072    -0.15500
C626        C  0.02555742  0.24445225  0.87270159     0.08500
C627        C  0.02018798  0.18971459  0.90051157     0.10400
C628        C  0.01554760  0.14433138  0.92469014    -0.16400
C629        C  0.00996887  0.14186019  0.57627967    -0.15500
C630        C  0.01639685  0.18919082  0.60003116     0.08500
C631        C  0.02355242  0.24573662  0.62745628     0.10400
C632        C  0.52634742  0.29488105  0.64965267    -0.16400
C633        C  0.65020543  0.42350688  0.57332336    -0.15500
C634        C  0.67775184  0.40920887  0.59744172     0.08500
C635        C  0.70834024  0.39775134  0.62760038     0.10400
C636        C  0.73988271  0.40768534  0.65444837    -0.16400
C637        C  0.74035990  0.40873483  0.84611331    -0.15500
C638        C  0.70826881  0.39904977  0.87268279     0.08500
C639        C  0.67542463  0.40844926  0.90233902     0.10400
C640        C  0.64467327  0.41910520  0.92594050    -0.16400
C641        C  0.82203655  0.24991459  0.92619482    -0.15500
C642        C  0.78839115  0.20676454  0.90142546     0.08500
C643        C  0.74889346  0.16310674  0.87135449     0.10400
C644        C  0.71187310  0.13767444  0.84558297    -0.16400
C645        C  0.83054261  0.24783239  0.57626047    -0.15500
C646        C  0.79453938  0.20489128  0.60059654     0.08500
C647        C  0.75176310  0.16155322  0.62995506     0.10400
C648        C  0.71286173  0.13693487  0.65508325    -0.16400
C649        C  0.81579354  0.71398257  0.28335499     0.48400
H650        H  0.82177685  0.71666596  0.31134780    -0.00600
C651        C  0.81579447  0.71428239  0.21735514     0.48500
H652        H  0.82211460  0.71756237  0.18942689    -0.00600
C653        C  0.80978740  0.63227772  0.26747899    -0.14300
C654        C  0.74681224  0.71127018  0.26845901    -0.14000
C655        C  0.88566222  0.79266175  0.26737521    -0.14400
C656        C  0.80978901  0.63243892  0.23314403    -0.14400
C657        C  0.74678734  0.71139081  0.23207391    -0.14000
C658        C  0.88559363  0.79278731  0.23343929    -0.14300
C659        C  0.63026037  0.84485557  0.28303301     0.48400
H660        H  0.63082849  0.84173560  0.31078750    -0.00600
C661        C  0.62988294  0.84529731  0.21729353     0.48500
H662        H  0.63005502  0.84262862  0.18951852    -0.00600
C663        C  0.55985488  0.84001661  0.26846165    -0.14300
C664        C  0.70019741  0.92774993  0.26819106    -0.14000
C665        C  0.63096336  0.76756014  0.26711336    -0.14400
C666        C  0.55966152  0.84025243  0.23200432    -0.14400
C667        C  0.69996508  0.92796179  0.23220480    -0.14000
C668        C  0.63087996  0.76785720  0.23298777    -0.14300
N669        N  0.68087861  0.67954087  0.21015899    -0.00500
C670        C  0.66171713  0.62819063  0.18127792     0.02100
C671        C  0.59242782  0.60527788  0.16983049    -0.20800
C672        C  0.57018000  0.64885626  0.18999799    -0.21000
C673        C  0.62591298  0.69586643  0.21329631     0.02000
H674        H  0.56670344  0.57342419  0.14576815     0.15800
H675        H  0.52237418  0.65321510  0.18588593     0.15800
N676        N  0.68090184  0.67933288  0.29017530    -0.00500
C677        C  0.66137354  0.62728077  0.31885600     0.02100
C678        C  0.59135130  0.60286593  0.32958420    -0.20800
C679        C  0.56920107  0.64655813  0.30927542    -0.21000
C680        C  0.62563991  0.69493628  0.28656297     0.02000
H681        H  0.56519385  0.57066929  0.35350301     0.15800
H682        H  0.52122103  0.65056245  0.31311881     0.15800
N683        N  0.76611939  0.98182618  0.28983620    -0.00500
C684        C  0.78874477  0.95633807  0.31799851     0.02100
C685        C  0.85847322  0.52326922  0.32830100    -0.20800
C686        C  0.87543049  0.59516911  0.30922864    -0.21000
C687        C  0.81800630  0.56875734  0.28681609     0.02000
H688        H  0.88678963  0.52542151  0.35176008     0.15800
H689        H  0.92035568  0.66186983  0.31351657     0.15800
N690        N  0.76563207  0.98210337  0.21055896    -0.00500
C691        C  0.78805448  0.95664460  0.18241755     0.02100
C692        C  0.85765501  0.52363687  0.17210953    -0.20800
C693        C  0.87502488  0.59538712  0.19133403    -0.21000
C694        C  0.81774196  0.56894505  0.21372103     0.02000
H695        H  0.88577963  0.52580330  0.14866386     0.15100
H696        H  0.92013157  0.66207844  0.18715890     0.15800
N697        N  0.50607211  0.83978299  0.20739287    -0.00500
C698        C  0.51741117  0.85255113  0.17265246     0.02100
C699        C  0.98016996  0.88939649  0.15931459    -0.20800
C700        C  0.93856260  0.89146310  0.18527816    -0.21000
C701        C  0.95126069  0.85534291  0.21365938     0.02000
H702        H  0.97228035  0.89709122  0.13237491     0.15800
H703        H  0.89185474  0.89880272  0.18164756     0.15800
N704        N  0.50650188  0.83918455  0.29318206    -0.00500
C705        C  0.51812955  0.85118078  0.32793528     0.02100
C706        C  0.98103402  0.88771884  0.34155548    -0.20800
C707        C  0.93925898  0.89049747  0.31572168    -0.21000
C708        C  0.95161973  0.85490563  0.28715680     0.02000
H709        H  0.97347100  0.89490871  0.36854691     0.15800
H710        H  0.89257875  0.89772109  0.31955021     0.15800
O711        O  0.61394395  0.50541217  0.04124957    -0.78800
C712        C  0.86664736  0.80325541  0.45454904     1.00500
O713        O  0.89828483  0.77550057  0.47304808    -0.67900
O714        O  0.53863295  0.86035774  0.45842321    -0.71500
Al715      Al  0.98597633  0.83581858  0.99984230     1.49000
C716        C  0.60262786  0.92547583  0.45288103     0.95800
O717        O  0.56734835  0.58575672  0.46058355    -0.77800
O718        O  0.94156051  0.51771367  0.04094041    -0.71300
Al719      Al  0.58533367  0.53954907  0.50082766     1.90100
O720        O  0.95242640  0.54723211  0.47029585    -0.70400
O721        O  0.85761794  0.84656798  0.03091414    -0.70200
O722        O  0.87473593  0.87697829  0.46014358    -0.75900
O723        O  0.93285649  0.80004760  0.04126757    -0.74100
O724        O  0.99465368  0.94104960  0.00044060    -1.10200
O725        O  0.57190881  0.86896174  0.02641684    -0.69400
C726        C  0.61068987  0.93381955  0.04565158     1.01300
C727        C  0.01173190  0.59006566  0.45324337     0.97700
Al728      Al  0.91325323  0.94657488  0.00058554     1.55600
O729        O  0.62994911  0.49460073  0.47088214    -0.74000
C730        C  0.87559860  0.80074164  0.04818859     1.01900
C731        C  0.00331804  0.58571123  0.04800074     0.96700
O732        O  0.56027715  0.60558560  0.03080764    -0.79400
C733        C  0.02762538  0.79331269  0.35057711    -0.15500
C734        C  0.02582406  0.74462248  0.37276030     0.08500
C735        C  0.02058767  0.68991320  0.40055402     0.10400
C736        C  0.01602780  0.64452850  0.42471633    -0.16400
C737        C  0.00948776  0.64168119  0.07630229    -0.15500
C738        C  0.01602036  0.68901848  0.10007100     0.08500
C739        C  0.02333709  0.74560197  0.12751328     0.10400
C740        C  0.52625296  0.79479657  0.14971865    -0.16400
C741        C  0.64981343  0.92353122  0.07334185    -0.15500
C742        C  0.67741957  0.90931446  0.09745799     0.08500
C743        C  0.70810747  0.89793592  0.12759923     0.10400
C744        C  0.73972052  0.90785662  0.15442555    -0.16400
C745        C  0.74062448  0.90862394  0.34609316    -0.15500
C746        C  0.70859886  0.89892169  0.37268419     0.08500
C747        C  0.67583067  0.90837937  0.40235595     0.10400
C748        C  0.64511414  0.91909849  0.42595607    -0.16400
C749        C  0.82241416  0.75005289  0.42620854    -0.15500
C750        C  0.78867881  0.70688079  0.40145817     0.08500
C751        C  0.74906324  0.66318826  0.37141407     0.10400
C752        C  0.71197688  0.63773690  0.34566173    -0.16400
C753        C  0.83016347  0.74768756  0.07626628    -0.15500
C754        C  0.79425206  0.70475113  0.10062146     0.08500
C755        C  0.75161401  0.66143872  0.13001466     0.10400
C756        C  0.71279615  0.63684834  0.15516950    -0.16400
C757        C  0.81574739  0.71399652  0.78329732     0.48400
H758        H  0.82171940  0.71671493  0.81129185    -0.00600
C759        C  0.81576976  0.71423436  0.71729825     0.48500
H760        H  0.82210839  0.71748099  0.68937322    -0.00600
C761        C  0.80974181  0.63226900  0.76744150    -0.14300
C762        C  0.74676629  0.71126287  0.76838688    -0.14000
C763        C  0.88562075  0.79266536  0.76730808    -0.14400
C764        C  0.80975721  0.63240743  0.73310649    -0.14400
C765        C  0.74676521  0.71137315  0.73200128    -0.14000
C766        C  0.88556241  0.79274984  0.73337235    -0.14300
C767        C  0.63017444  0.84477487  0.78297147     0.48400
H768        H  0.63069623  0.84157728  0.81072489    -0.00600
C769        C  0.62988066  0.84532900  0.71723255     0.48500
H770        H  0.63009868  0.84273793  0.68945666    -0.00600
C771        C  0.55979350  0.83996866  0.76839410    -0.14300
C772        C  0.70012303  0.92770516  0.76815598    -0.14000
C773        C  0.63089607  0.76750799  0.76703314    -0.14400
C774        C  0.55963778  0.84025570  0.73193679    -0.14400
C775        C  0.69995078  0.92795731  0.73216990    -0.14000
C776        C  0.63085685  0.76785941  0.73290785    -0.14300
N777        N  0.68088663  0.67957380  0.71007010    -0.00500
C778        C  0.66175253  0.62825402  0.68118085     0.02100
C779        C  0.59246716  0.60533543  0.66972657    -0.20800
C780        C  0.57020220  0.64889607  0.68989538    -0.21000
C781        C  0.62591875  0.69589815  0.71320214     0.02000
H782        H  0.56675217  0.57347978  0.64566301     0.15800
H783        H  0.52238964  0.65323732  0.68578259     0.15800
N784        N  0.68083212  0.67928741  0.79009105    -0.00500
C785        C  0.66129267  0.62722932  0.81877005     0.02100
C786        C  0.59125938  0.60279618  0.82948847    -0.20800
C787        C  0.56910336  0.64646954  0.80917280    -0.21000
C788        C  0.62555576  0.69486150  0.78646787     0.02000
H789        H  0.56509733  0.57060508  0.85340762     0.15800
H790        H  0.52111358  0.65046554  0.81301014     0.15800
N791        N  0.76599119  0.98180628  0.78982835    -0.00500
C792        C  0.78853907  0.95633054  0.81802189     0.02100
C793        C  0.85826800  0.52323669  0.82833464    -0.20800
C794        C  0.87529332  0.59512280  0.80923551    -0.21000
C795        C  0.81791206  0.56872712  0.78679830     0.02000
H796        H  0.88653781  0.52539795  0.85181163     0.15800
H797        H  0.92023552  0.66181263  0.81351741     0.15800
N798        N  0.76567105  0.98207176  0.71055132    -0.00500
C799        C  0.78816617  0.95659417  0.68244120     0.02100
C800        C  0.85775798  0.52361412  0.67213484    -0.20800
C801        C  0.87506372  0.59538150  0.69133136    -0.21000
C802        C  0.81774794  0.56892707  0.71370034     0.02000
H803        H  0.88592403  0.52576555  0.64870521     0.15100
H804        H  0.92015484  0.66208169  0.68714838     0.15800
N805        N  0.50606240  0.83979977  0.70732112    -0.00500
C806        C  0.51740985  0.85256908  0.67258097     0.02100
C807        C  0.98012845  0.88935324  0.65923390    -0.20800
C808        C  0.93848862  0.89137448  0.68519173    -0.21000
C809        C  0.95121537  0.85530344  0.71358080     0.02000
H810        H  0.97223931  0.89702992  0.63229255     0.15800
H811        H  0.89174474  0.89863661  0.68155151     0.15800
N812        N  0.50643366  0.83913496  0.79311070    -0.00500
C813        C  0.51804954  0.85112086  0.82786449     0.02100
C814        C  0.98099195  0.88771547  0.84147755    -0.20800
C815        C  0.93925145  0.89054500  0.81563819    -0.21000
C816        C  0.95158785  0.85491247  0.78707926     0.02000
H817        H  0.97342582  0.89491569  0.86846740     0.15800
H818        H  0.89260537  0.89784299  0.81945813     0.15800
O819        O  0.61439302  0.50545553  0.54124985    -0.78800
C820        C  0.86623087  0.80311225  0.95454858     1.00500
O821        O  0.89788816  0.77538359  0.97304729    -0.67900
O822        O  0.53823092  0.86028708  0.95842945    -0.71500
Al823      Al  0.98638680  0.83590644  0.49983813     1.49000
C824        C  0.60220489  0.92543401  0.95287890     0.95800
O825        O  0.56685427  0.58562663  0.96058118    -0.77800
O826        O  0.94204711  0.51785419  0.54093837    -0.71300
Al827      Al  0.58486314  0.53946227  0.00082576     1.90100
O828        O  0.95192155  0.54706848  0.97028601    -0.70400
O829        O  0.85806779  0.84672115  0.53090765    -0.70200
O830        O  0.87427141  0.87680863  0.96014834    -0.75900
O831        O  0.93327254  0.80015779  0.54127085    -0.74100
O832        O  0.99510797  0.94116077  0.50043925    -1.10200
O833        O  0.57231829  0.86900444  0.52640196    -0.69400
C834        C  0.61111687  0.93384503  0.54564070     1.01300
C835        C  0.01122657  0.58990034  0.95323126     0.97700
Al836      Al  0.91372939  0.94672734  0.50058445     1.55600
O837        O  0.62950795  0.49455319  0.97088140    -0.74000
C838        C  0.87602360  0.80087944  0.54818725     1.01900
C839        C  0.00380576  0.58584890  0.54799686     0.96700
O840        O  0.56077108  0.60569787  0.53081279    -0.79400
C841        C  0.02745499  0.79318721  0.85050911    -0.15500
C842        C  0.02554710  0.74445054  0.87269990     0.08500
C843        C  0.02017159  0.68971087  0.90051010     0.10400
C844        C  0.01552697  0.64432633  0.92468892    -0.16400
C845        C  0.00994947  0.64184989  0.57628024    -0.15500
C846        C  0.01638332  0.68918123  0.60003234     0.08500
C847        C  0.02354715  0.74573063  0.62745731     0.10400
C848        C  0.52634688  0.79487918  0.64965282    -0.16400
C849        C  0.65021681  0.92349948  0.57332626    -0.15500
C850        C  0.67776096  0.90919771  0.59744461     0.08500
C851        C  0.70834910  0.89774006  0.62760340     0.10400
C852        C  0.73989215  0.90767889  0.65445166    -0.16400
C853        C  0.74035417  0.90870891  0.84611130    -0.15500
C854        C  0.70826474  0.89902007  0.87268160     0.08500
C855        C  0.67543044  0.90843105  0.90233913     0.10400
C856        C  0.64468886  0.91910045  0.92594141    -0.16400
C857        C  0.82205223  0.74992189  0.92619528    -0.15500
C858        C  0.78840181  0.70677484  0.90142617     0.08500
C859        C  0.74889989  0.66312041  0.87135547     0.10400
C860        C  0.71187818  0.63768849  0.84558427    -0.16400
C861        C  0.83055265  0.74783008  0.57625915    -0.15500
C862        C  0.79454413  0.70488938  0.60059436     0.08500
C863        C  0.75176241  0.66155432  0.62995214     0.10400
C864        C  0.71285985  0.63693967  0.65508006    -0.16400
loop_ 
_geom_bond_atom_site_label_1 
_geom_bond_atom_site_label_2 
_geom_bond_distance 
_geom_bond_site_symmetry_2 
_ccdc_geom_bond_type 
C1            H2   1.097       .  S
C1            C7   1.538       .  S
C1            C6   1.555       .  S
C1            C5   1.533       .  S
C3            H4   1.095       .  S
C3            C9   1.555       .  S
C3            C8   1.532       .  S
C3           C10   1.536       .  S
C5            C8   1.339       .  D
C5           C39   1.451       .  S
C6            C9   1.419       .  D
C6           N28   1.472       .  S
C7           C10   1.323       .  D
C7           C60   1.465       .  S
C8           C46   1.451       .  S
C9           N21   1.473       .  S
C10          C53   1.465       .  S
C11          H12   1.084       .  S
C11          C17   1.527       .  S
C11          C16   1.553       .  S
C11          C15   1.561       .  S
C13          H14   1.084       .  S
C13          C19   1.553       .  S
C13          C18   1.561       .  S
C13          C20   1.527       .  S
C15          C18   1.422       .  D
C15          N56   1.486       .  S
C16          C19   1.403       .  D
C16          N35   1.474       .  S
C17          C20   1.331       .  D
C17          C32   1.457       .  S
C18          N49   1.486       .  S
C19          N42   1.474       .  S
C20          C25   1.458       .  S
N21          C25   1.355       .  A
N21          C22   1.373       .  A
C22          C23   1.378       .  A
C22         C108   1.439       .  S
C23          C24   1.361       .  A
C23          H26   1.083       .  S
C24          C25   1.371       .  A
C24          H27   1.074       .  S
N28          C32   1.354       .  A
N28          C29   1.372       .  A
C29          C30   1.379       .  A
C29         C104   1.439       .  S
C30          C31   1.361       .  A
C30          H33   1.083       .  S
C31          C32   1.370       .  A
C31          H34   1.073       .  S
N35          C36   1.370       .  A
N35         C255   1.354       .  A
C36         C253   1.383       .  A
C36          C97   1.433       .  S
C37          C38   1.360       .  A
C37         C252   1.383   1_545  A
C37          H40   1.084       .  S
C38          C39   1.365       .  A
C38          H41   1.076       .  S
C39         N251   1.354   1_545  A
N42          C43   1.370       .  A
N42         C262   1.355       .  A
C43         C260   1.383       .  A
C43          C96   1.434       .  S
C44          C45   1.360       .  A
C44         C259   1.383   1_545  A
C44          H47   1.084       .  S
C45          C46   1.366       .  A
C45          H48   1.077       .  S
C46         N258   1.355   1_545  A
N49          C50   1.374       .  A
N49         C485   1.360   1_455  A
C50         C483   1.375   1_455  A
C50          C92   1.456       .  S
C51          C52   1.361       .  A
C51         C482   1.375       .  A
C51          H54   1.084       .  S
C52          C53   1.378       .  A
C52          H55   1.080       .  S
C53         N481   1.360       .  A
N56          C57   1.374       .  A
N56         C492   1.360   1_455  A
C57         C490   1.375   1_455  A
C57         C517   1.455       .  S
C58          C59   1.361       .  A
C58         C489   1.374       .  A
C58          H61   1.083       .  S
C59          C60   1.378       .  A
C59          H62   1.080       .  S
C60         N488   1.360       .  A
O63         C294   1.259   1_545  A
O63        Al179   1.906       .  S
C64         C101   1.436       .  S
C64          O74   1.258       .  A
C64          O65   1.255       .  A
O65        Al175   1.903       .  S
O66          C68   1.256       .  A
O66        Al607   1.878   1_455  S
Al67         O75   1.881   1_556  S
Al67        O173   1.902       .  S
Al67        O606   1.878       .  S
Al67        O509   1.901   1_556  S
Al67         O76   1.796   1_556  S
C68         C100   1.432       .  S
C68         O297   1.266       .  A
O69         C511   1.260       .  A
O69         Al71   1.904       .  S
O70          C83   1.260       .  A
O70        Al296   1.911   1_545  S
Al71         O81   1.934   1_545  S
Al71        O171   1.907       .  S
Al71        O192   1.927       .  S
Al71        O832   1.790   1_445  S
O72          C79   1.265       .  A
O72        Al404   1.934   1_545  S
O73          C82   1.268       .  A
O73         Al80   1.939       .  S
O74        Al188   1.907       .  S
O75          C82   1.256       .  A
O76         Al80   1.789       .  S
O76        Al827   1.790       .  S
O77          C78   1.255       .  A
O77        Al499   1.901   1_454  S
C78          C93   1.433       .  S
C78         O279   1.259       .  A
C79          C88   1.450       .  S
C79         O501   1.260       .  A
Al80        O286   1.911       .  S
Al80        O396   1.935   1_554  S
Al80        O182   1.907   1_554  S
O81         C284   1.266       .  A
C82         C105   1.437       .  S
C83          C89   1.451       .  S
C83         O516   1.262       .  A
O84         C515   1.262       .  A
O84        Al179   1.927       .  S
C85         C489   1.455       .  S
C85          C86   1.214       .  T
C86          C87   1.425       .  S
C87          C88   1.214       .  T
C89          C90   1.215       .  T
C90          C91   1.426       .  S
C91         C524   1.215       .  T
C92         C523   1.215       .  T
C93          C94   1.204       .  T
C94          C95   1.410       .  S
C95          C96   1.204       .  T
C97          C98   1.203       .  T
C98          C99   1.409       .  S
C99         C100   1.204       .  T
C101        C102   1.206       .  T
C102        C103   1.412       .  S
C103        C104   1.206       .  T
C105        C106   1.207       .  T
C106        C107   1.412       .  S
C107        C108   1.207       .  T
C109        H110   1.097       .  S
C109        C115   1.538       .  S
C109        C114   1.555       .  S
C109        C113   1.533       .  S
C111        H112   1.095       .  S
C111        C117   1.555       .  S
C111        C116   1.532       .  S
C111        C118   1.536       .  S
C113        C116   1.339       .  D
C113        C147   1.451       .  S
C114        C117   1.419       .  D
C114        N136   1.472       .  S
C115        C118   1.323       .  D
C115        C168   1.465       .  S
C116        C154   1.451       .  S
C117        N129   1.473       .  S
C118        C161   1.465       .  S
C119        H120   1.084       .  S
C119        C125   1.527       .  S
C119        C124   1.553       .  S
C119        C123   1.561       .  S
C121        H122   1.084       .  S
C121        C127   1.553       .  S
C121        C126   1.561       .  S
C121        C128   1.527       .  S
C123        C126   1.422       .  D
C123        N164   1.486       .  S
C124        C127   1.403       .  D
C124        N143   1.474       .  S
C125        C128   1.331       .  D
C125        C140   1.457       .  S
C126        N157   1.486       .  S
C127        N150   1.474       .  S
C128        C133   1.458       .  S
N129        C133   1.355       .  A
N129        C130   1.373       .  A
C130        C131   1.378       .  A
C130        C216   1.439       .  S
C131        C132   1.361       .  A
C131        H134   1.083       .  S
C132        C133   1.371       .  A
C132        H135   1.074       .  S
N136        C140   1.354       .  A
N136        C137   1.372       .  A
C137        C138   1.379       .  A
C137        C212   1.439       .  S
C138        C139   1.361       .  A
C138        H141   1.083       .  S
C139        C140   1.370       .  A
C139        H142   1.073       .  S
N143        C363   1.354       .  A
N143        C144   1.370       .  A
C144        C361   1.383       .  A
C144        C205   1.433       .  S
C145        C360   1.383   1_545  A
C145        C146   1.360       .  A
C145        H148   1.084       .  S
C146        C147   1.365       .  A
C146        H149   1.076       .  S
C147        N359   1.354   1_545  A
N150        C370   1.355       .  A
N150        C151   1.370       .  A
C151        C368   1.383       .  A
C151        C204   1.434       .  S
C152        C367   1.383   1_545  A
C152        C153   1.360       .  A
C152        H155   1.084       .  S
C153        C154   1.366       .  A
C153        H156   1.077       .  S
C154        N366   1.355   1_545  A
N157        C593   1.360   1_455  A
N157        C158   1.374       .  A
C158        C591   1.375   1_455  A
C158        C200   1.456       .  S
C159        C590   1.375       .  A
C159        C160   1.361       .  A
C159        H162   1.083       .  S
C160        C161   1.378       .  A
C160        H163   1.080       .  S
C161        N589   1.360       .  A
N164        C600   1.360   1_455  A
N164        C165   1.373       .  A
C165        C598   1.375   1_455  A
C165        C625   1.455       .  S
C166        C597   1.375       .  A
C166        C167   1.361       .  A
C166        H169   1.083       .  S
C167        C168   1.378       .  A
C167        H170   1.080       .  S
C168        N596   1.360       .  A
O171        C402   1.260   1_545  A
C172        C209   1.436       .  S
C172        O182   1.258       .  A
C172        O173   1.255       .  A
O174        C176   1.256       .  A
O174       Al499   1.878   1_455  S
Al175       O498   1.878       .  S
Al175       O183   1.881       .  S
Al175       O617   1.901       .  S
Al175       O184   1.796       .  S
C176        C208   1.432       .  S
C176        O405   1.266       .  A
O177        C619   1.260       .  A
O177       Al179   1.904   1_556  S
O178        C191   1.260       .  A
O178       Al404   1.911   1_545  S
Al179       O189   1.934   1_544  S
Al179       O724   1.790   1_445  S
O180        C187   1.265       .  A
O180       Al296   1.935   1_546  S
O181        C190   1.268       .  A
O181       Al188   1.939       .  S
O183        C190   1.257       .  A
O184       Al719   1.790       .  S
O184       Al188   1.789       .  S
O185        C186   1.255       .  A
O185       Al607   1.901   1_455  S
C186        C201   1.433       .  S
C186        O387   1.260       .  A
C187        C196   1.450       .  S
C187        O609   1.260       .  A
Al188       O394   1.911       .  S
Al188       O288   1.934       .  S
O189        C392   1.266       .  A
C190        C213   1.437       .  S
C191        C197   1.451       .  S
C191        O624   1.262       .  A
O192        C623   1.262       .  A
C193        C597   1.455       .  S
C193        C194   1.214       .  T
C194        C195   1.425       .  S
C195        C196   1.214       .  T
C197        C198   1.215       .  T
C198        C199   1.426       .  S
C199        C632   1.215       .  T
C200        C631   1.215       .  T
C201        C202   1.204       .  T
C202        C203   1.410       .  S
C203        C204   1.204       .  T
C205        C206   1.203       .  T
C206        C207   1.409       .  S
C207        C208   1.204       .  T
C209        C210   1.206       .  T
C210        C211   1.412       .  S
C211        C212   1.206       .  T
C213        C214   1.207       .  T
C214        C215   1.413       .  S
C215        C216   1.207       .  T
C217        H218   1.097       .  S
C217        C223   1.538       .  S
C217        C222   1.555       .  S
C217        C221   1.533       .  S
C219        H220   1.095       .  S
C219        C225   1.555       .  S
C219        C224   1.532       .  S
C219        C226   1.536       .  S
C221        C224   1.339       .  D
C221        C255   1.451       .  S
C222        C225   1.419       .  D
C222        N244   1.472       .  S
C223        C226   1.323       .  D
C223        C276   1.465       .  S
C224        C262   1.451       .  S
C225        N237   1.473       .  S
C226        C269   1.465       .  S
C227        H228   1.084       .  S
C227        C233   1.527       .  S
C227        C232   1.553       .  S
C227        C231   1.561       .  S
C229        H230   1.084       .  S
C229        C235   1.553       .  S
C229        C234   1.561       .  S
C229        C236   1.527       .  S
C231        C234   1.422       .  D
C231        N272   1.486       .  S
C232        C235   1.403       .  D
C232        N251   1.474       .  S
C233        C236   1.331       .  D
C233        C248   1.457       .  S
C234        N265   1.486       .  S
C235        N258   1.474       .  S
C236        C241   1.458       .  S
N237        C241   1.355       .  A
N237        C238   1.373       .  A
C238        C239   1.378       .  A
C238        C324   1.439       .  S
C239        C240   1.361       .  A
C239        H242   1.083       .  S
C240        C241   1.371       .  A
C240        H243   1.074       .  S
N244        C248   1.354       .  A
N244        C245   1.372       .  A
C245        C246   1.379       .  A
C245        C320   1.439       .  S
C246        C247   1.361       .  A
C246        H249   1.083       .  S
C247        C248   1.370       .  A
C247        H250   1.073       .  S
N251        C252   1.370       .  A
C252        C313   1.433       .  S
C253        C254   1.360       .  A
C253        H256   1.084       .  S
C254        C255   1.365       .  A
C254        H257   1.076       .  S
N258        C259   1.370       .  A
C259        C312   1.434       .  S
C260        C261   1.360       .  A
C260        H263   1.084       .  S
C261        C262   1.366       .  A
C261        H264   1.077       .  S
N265        C701   1.360   1_455  A
N265        C266   1.374       .  A
C266        C699   1.375   1_455  A
C266        C308   1.456       .  S
C267        C698   1.375       .  A
C267        C268   1.361       .  A
C267        H270   1.084       .  S
C268        C269   1.378       .  A
C268        H271   1.080       .  S
C269        N697   1.360       .  A
N272        C708   1.360   1_455  A
N272        C273   1.374       .  A
C273        C706   1.374   1_455  A
C273        C733   1.455       .  S
C274        C705   1.374       .  A
C274        C275   1.361       .  A
C274        H277   1.083       .  S
C275        C276   1.378       .  A
C275        H278   1.080       .  S
C276        N704   1.360       .  A
O279       Al395   1.906       .  S
C280        C317   1.436       .  S
C280        O290   1.258       .  A
C280        O281   1.255       .  A
O281       Al391   1.903       .  S
O282        C284   1.256       .  A
O282       Al823   1.878   1_455  S
Al283       O389   1.902       .  S
Al283       O822   1.878       .  S
Al283       O291   1.881   1_556  S
Al283       O725   1.901   1_556  S
Al283       O292   1.796   1_556  S
C284        C316   1.432       .  S
O285        C727   1.260       .  A
O285       Al287   1.904       .  S
O286        C299   1.260       .  A
Al287       O387   1.907       .  S
Al287       O408   1.927       .  S
Al287       O297   1.934       .  S
Al287       O616   1.790   1_455  S
O288        C295   1.265       .  A
O289        C298   1.268       .  A
O289       Al296   1.939       .  S
O290       Al404   1.907       .  S
O291        C298   1.256       .  A
O292       Al611   1.790   1_565  S
O292       Al296   1.789       .  S
O293        C294   1.255       .  A
O293       Al715   1.901   1_454  S
C294        C309   1.433       .  S
C295        C304   1.450       .  S
C295        O717   1.260       .  A
Al296       O398   1.907   1_554  S
C298        C321   1.437       .  S
C299        C305   1.451       .  S
C299        O732   1.262       .  A
O300        C731   1.262       .  A
O300       Al395   1.927       .  S
C301        C705   1.455       .  S
C301        C302   1.214       .  T
C302        C303   1.425       .  S
C303        C304   1.214       .  T
C305        C306   1.215       .  T
C306        C307   1.426       .  S
C307        C740   1.215       .  T
C308        C739   1.215       .  T
C309        C310   1.204       .  T
C310        C311   1.410       .  S
C311        C312   1.204       .  T
C313        C314   1.203       .  T
C314        C315   1.409       .  S
C315        C316   1.204       .  T
C317        C318   1.206       .  T
C318        C319   1.412       .  S
C319        C320   1.206       .  T
C321        C322   1.207       .  T
C322        C323   1.412       .  S
C323        C324   1.207       .  T
C325        H326   1.097       .  S
C325        C331   1.538       .  S
C325        C330   1.555       .  S
C325        C329   1.533       .  S
C327        H328   1.095       .  S
C327        C333   1.555       .  S
C327        C332   1.532       .  S
C327        C334   1.536       .  S
C329        C332   1.339       .  D
C329        C363   1.451       .  S
C330        C333   1.419       .  D
C330        N352   1.472       .  S
C331        C334   1.323       .  D
C331        C384   1.465       .  S
C332        C370   1.451       .  S
C333        N345   1.473       .  S
C334        C377   1.465       .  S
C335        H336   1.084       .  S
C335        C341   1.527       .  S
C335        C340   1.553       .  S
C335        C339   1.561       .  S
C337        H338   1.084       .  S
C337        C343   1.553       .  S
C337        C342   1.561       .  S
C337        C344   1.527       .  S
C339        C342   1.422       .  D
C339        N380   1.486       .  S
C340        C343   1.403       .  D
C340        N359   1.474       .  S
C341        C344   1.331       .  D
C341        C356   1.457       .  S
C342        N373   1.486       .  S
C343        N366   1.474       .  S
C344        C349   1.458       .  S
N345        C349   1.355       .  A
N345        C346   1.373       .  A
C346        C347   1.378       .  A
C346        C432   1.439       .  S
C347        C348   1.361       .  A
C347        H350   1.083       .  S
C348        C349   1.371       .  A
C348        H351   1.074       .  S
N352        C356   1.354       .  A
N352        C353   1.372       .  A
C353        C354   1.379       .  A
C353        C428   1.439       .  S
C354        C355   1.361       .  A
C354        H357   1.083       .  S
C355        C356   1.370       .  A
C355        H358   1.073       .  S
N359        C360   1.370       .  A
C360        C421   1.433       .  S
C361        C362   1.360       .  A
C361        H364   1.084       .  S
C362        C363   1.365       .  A
C362        H365   1.076       .  S
N366        C367   1.370       .  A
C367        C420   1.434       .  S
C368        C369   1.360       .  A
C368        H371   1.084       .  S
C369        C370   1.366       .  A
C369        H372   1.077       .  S
N373        C809   1.360   1_455  A
N373        C374   1.374       .  A
C374        C807   1.375   1_455  A
C374        C416   1.456       .  S
C375        C806   1.375       .  A
C375        C376   1.361       .  A
C375        H378   1.083       .  S
C376        C377   1.378       .  A
C376        H379   1.080       .  S
C377        N805   1.360       .  A
N380        C816   1.360   1_455  A
N380        C381   1.373       .  A
C381        C814   1.375   1_455  A
C381        C841   1.455       .  S
C382        C813   1.375       .  A
C382        C383   1.361       .  A
C382        H385   1.083       .  S
C383        C384   1.378       .  A
C383        H386   1.080       .  S
C384        N812   1.360       .  A
C388        C425   1.436       .  S
C388        O398   1.258       .  A
C388        O389   1.255       .  A
O390        C392   1.256       .  A
O390       Al715   1.878   1_455  S
Al391       O714   1.878       .  S
Al391       O399   1.881       .  S
Al391       O833   1.901       .  S
Al391       O400   1.796       .  S
C392        C424   1.432       .  S
O393        C835   1.260       .  A
O393       Al395   1.904   1_556  S
O394        C407   1.260       .  A
Al395       O405   1.934   1_554  S
Al395       O508   1.790   1_455  S
O396        C403   1.265       .  A
O397        C406   1.268       .  A
O397       Al404   1.939       .  S
O399        C406   1.257       .  A
O400       Al503   1.790   1_565  S
O400       Al404   1.789       .  S
O401        C402   1.255       .  A
O401       Al823   1.901   1_455  S
C402        C417   1.433       .  S
C403        C412   1.450       .  S
C403        O825   1.260       .  A
C406        C429   1.437       .  S
C407        C413   1.451       .  S
C407        O840   1.262       .  A
O408        C839   1.262       .  A
C409        C813   1.455       .  S
C409        C410   1.214       .  T
C410        C411   1.425       .  S
C411        C412   1.214       .  T
C413        C414   1.214       .  T
C414        C415   1.426       .  S
C415        C848   1.215       .  T
C416        C847   1.215       .  T
C417        C418   1.204       .  T
C418        C419   1.410       .  S
C419        C420   1.204       .  T
C421        C422   1.203       .  T
C422        C423   1.409       .  S
C423        C424   1.204       .  T
C425        C426   1.206       .  T
C426        C427   1.412       .  S
C427        C428   1.206       .  T
C429        C430   1.207       .  T
C430        C431   1.413       .  S
C431        C432   1.207       .  T
C433        H434   1.097       .  S
C433        C439   1.538       .  S
C433        C438   1.555       .  S
C433        C437   1.533       .  S
C435        H436   1.095       .  S
C435        C441   1.555       .  S
C435        C440   1.532       .  S
C435        C442   1.536       .  S
C437        C440   1.339       .  D
C437        C471   1.451       .  S
C438        C441   1.419       .  D
C438        N460   1.472       .  S
C439        C442   1.323       .  D
C439        C492   1.465       .  S
C440        C478   1.451       .  S
C441        N453   1.473       .  S
C442        C485   1.465       .  S
C443        H444   1.084       .  S
C443        C449   1.527       .  S
C443        C448   1.553       .  S
C443        C447   1.561       .  S
C445        H446   1.084       .  S
C445        C451   1.553       .  S
C445        C450   1.561       .  S
C445        C452   1.527       .  S
C447        C450   1.422       .  D
C447        N488   1.486       .  S
C448        C451   1.403       .  D
C448        N467   1.474       .  S
C449        C452   1.331       .  D
C449        C464   1.457       .  S
C450        N481   1.486       .  S
C451        N474   1.474       .  S
C452        C457   1.458       .  S
N453        C457   1.355       .  A
N453        C454   1.373       .  A
C454        C455   1.378       .  A
C454        C540   1.439       .  S
C455        C456   1.361       .  A
C455        H458   1.083       .  S
C456        C457   1.371       .  A
C456        H459   1.074       .  S
N460        C464   1.354       .  A
N460        C461   1.372       .  A
C461        C462   1.379       .  A
C461        C536   1.439       .  S
C462        C463   1.361       .  A
C462        H465   1.083       .  S
C463        C464   1.370       .  A
C463        H466   1.073       .  S
N467        C687   1.354       .  A
N467        C468   1.370       .  A
C468        C685   1.383       .  A
C468        C529   1.433       .  S
C469        C684   1.383   1_545  A
C469        C470   1.360       .  A
C469        H472   1.084       .  S
C470        C471   1.365       .  A
C470        H473   1.076       .  S
C471        N683   1.354   1_545  A
N474        C694   1.355       .  A
N474        C475   1.370       .  A
C475        C692   1.383       .  A
C475        C528   1.434       .  S
C476        C691   1.383   1_545  A
C476        C477   1.360       .  A
C476        H479   1.084       .  S
C477        C478   1.366       .  A
C477        H480   1.077       .  S
C478        N690   1.355   1_545  A
N481        C482   1.374       .  A
C482        C524   1.456       .  S
C483        C484   1.361       .  A
C483        H486   1.084       .  S
C484        C485   1.378       .  A
C484        H487   1.080       .  S
N488        C489   1.374       .  A
C490        C491   1.361       .  A
C490        H493   1.083       .  S
C491        C492   1.378       .  A
C491        H494   1.080       .  S
O495        C726   1.259   1_545  A
O495       Al611   1.906       .  S
C496        C533   1.436       .  S
C496        O506   1.258       .  A
C496        O497   1.255       .  A
O497       Al607   1.903       .  S
O498        C500   1.256       .  A
Al499       O605   1.902       .  S
Al499       O507   1.881   1_556  S
Al499       O508   1.796   1_556  S
C500        C532   1.432       .  S
C500        O729   1.266       .  A
O501       Al503   1.904       .  S
O502        C515   1.260   1_655  A
O502       Al728   1.911   1_545  S
Al503       O603   1.907       .  S
Al503       O624   1.927       .  S
Al503       O513   1.934   1_545  S
O504        C511   1.265   1_655  A
O504       Al836   1.934   1_545  S
O505        C514   1.268       .  A
O505       Al512   1.939       .  S
O506       Al620   1.907       .  S
O507        C514   1.256       .  A
O508       Al512   1.789       .  S
O509        C510   1.255       .  A
C510        C525   1.433       .  S
C510        O711   1.259       .  A
C511        C520   1.450       .  S
Al512       O718   1.911       .  S
Al512       O828   1.935   1_554  S
Al512       O614   1.907   1_554  S
O513        C716   1.266       .  A
C514        C537   1.437       .  S
C515        C521   1.451       .  S
O516       Al611   1.927       .  S
C517        C518   1.214       .  T
C518        C519   1.425       .  S
C519        C520   1.214       .  T
C521        C522   1.215       .  T
C522        C523   1.426       .  S
C525        C526   1.204       .  T
C526        C527   1.410       .  S
C527        C528   1.204       .  T
C529        C530   1.203       .  T
C530        C531   1.409       .  S
C531        C532   1.204       .  T
C533        C534   1.206       .  T
C534        C535   1.412       .  S
C535        C536   1.206       .  T
C537        C538   1.207       .  T
C538        C539   1.412       .  S
C539        C540   1.207       .  T
C541        H542   1.097       .  S
C541        C547   1.538       .  S
C541        C546   1.555       .  S
C541        C545   1.533       .  S
C543        H544   1.095       .  S
C543        C549   1.555       .  S
C543        C548   1.532       .  S
C543        C550   1.536       .  S
C545        C548   1.339       .  D
C545        C579   1.451       .  S
C546        C549   1.419       .  D
C546        N568   1.472       .  S
C547        C550   1.323       .  D
C547        C600   1.465       .  S
C548        C586   1.451       .  S
C549        N561   1.473       .  S
C550        C593   1.465       .  S
C551        H552   1.084       .  S
C551        C557   1.527       .  S
C551        C556   1.553       .  S
C551        C555   1.561       .  S
C553        H554   1.084       .  S
C553        C559   1.553       .  S
C553        C558   1.561       .  S
C553        C560   1.527       .  S
C555        C558   1.422       .  D
C555        N596   1.486       .  S
C556        C559   1.403       .  D
C556        N575   1.474       .  S
C557        C560   1.331       .  D
C557        C572   1.457       .  S
C558        N589   1.486       .  S
C559        N582   1.474       .  S
C560        C565   1.458       .  S
N561        C565   1.355       .  A
N561        C562   1.373       .  A
C562        C563   1.378       .  A
C562        C648   1.439       .  S
C563        C564   1.361       .  A
C563        H566   1.083       .  S
C564        C565   1.371       .  A
C564        H567   1.074       .  S
N568        C572   1.354       .  A
N568        C569   1.372       .  A
C569        C570   1.379       .  A
C569        C644   1.439       .  S
C570        C571   1.361       .  A
C570        H573   1.083       .  S
C571        C572   1.370       .  A
C571        H574   1.073       .  S
N575        C795   1.354       .  A
N575        C576   1.370       .  A
C576        C793   1.383       .  A
C576        C637   1.433       .  S
C577        C792   1.383   1_545  A
C577        C578   1.360       .  A
C577        H580   1.084       .  S
C578        C579   1.365       .  A
C578        H581   1.076       .  S
C579        N791   1.354   1_545  A
N582        C802   1.355       .  A
N582        C583   1.370       .  A
C583        C800   1.383       .  A
C583        C636   1.434       .  S
C584        C799   1.383   1_545  A
C584        C585   1.360       .  A
C584        H587   1.084       .  S
C585        C586   1.366       .  A
C585        H588   1.077       .  S
C586        N798   1.355   1_545  A
N589        C590   1.374       .  A
C590        C632   1.456       .  S
C591        C592   1.361       .  A
C591        H594   1.084       .  S
C592        C593   1.378       .  A
C592        H595   1.080       .  S
N596        C597   1.373       .  A
C598        C599   1.361       .  A
C598        H601   1.083       .  S
C599        C600   1.378       .  A
C599        H602   1.080       .  S
O603        C834   1.260   1_545  A
C604        C641   1.436       .  S
C604        O614   1.258       .  A
C604        O605   1.255       .  A
O606        C608   1.256       .  A
Al607       O615   1.881       .  S
Al607       O616   1.796       .  S
C608        C640   1.432       .  S
C608        O837   1.266       .  A
O609       Al611   1.904   1_556  S
O610        C623   1.260   1_655  A
O610       Al836   1.911   1_545  S
Al611       O621   1.934   1_544  S
O612        C619   1.265   1_655  A
O612       Al728   1.935   1_546  S
O613        C622   1.268       .  A
O613       Al620   1.939       .  S
O615        C622   1.257       .  A
O616       Al620   1.789       .  S
O617        C618   1.255       .  A
C618        C633   1.433       .  S
C618        O819   1.260       .  A
C619        C628   1.450       .  S
Al620       O826   1.911       .  S
Al620       O720   1.934       .  S
O621        C824   1.266       .  A
C622        C645   1.437       .  S
C623        C629   1.451       .  S
C625        C626   1.214       .  T
C626        C627   1.425       .  S
C627        C628   1.214       .  T
C629        C630   1.215       .  T
C630        C631   1.426       .  S
C633        C634   1.204       .  T
C634        C635   1.410       .  S
C635        C636   1.204       .  T
C637        C638   1.203       .  T
C638        C639   1.409       .  S
C639        C640   1.204       .  T
C641        C642   1.206       .  T
C642        C643   1.412       .  S
C643        C644   1.206       .  T
C645        C646   1.207       .  T
C646        C647   1.413       .  S
C647        C648   1.207       .  T
C649        H650   1.097       .  S
C649        C655   1.538       .  S
C649        C654   1.555       .  S
C649        C653   1.533       .  S
C651        H652   1.095       .  S
C651        C657   1.555       .  S
C651        C656   1.532       .  S
C651        C658   1.536       .  S
C653        C656   1.339       .  D
C653        C687   1.451       .  S
C654        C657   1.419       .  D
C654        N676   1.472       .  S
C655        C658   1.323       .  D
C655        C708   1.465       .  S
C656        C694   1.451       .  S
C657        N669   1.473       .  S
C658        C701   1.465       .  S
C659        H660   1.084       .  S
C659        C665   1.527       .  S
C659        C664   1.553       .  S
C659        C663   1.561       .  S
C661        H662   1.084       .  S
C661        C667   1.553       .  S
C661        C666   1.561       .  S
C661        C668   1.527       .  S
C663        C666   1.422       .  D
C663        N704   1.486       .  S
C664        C667   1.403       .  D
C664        N683   1.474       .  S
C665        C668   1.331       .  D
C665        C680   1.457       .  S
C666        N697   1.486       .  S
C667        N690   1.474       .  S
C668        C673   1.458       .  S
N669        C673   1.355       .  A
N669        C670   1.373       .  A
C670        C671   1.378       .  A
C670        C756   1.439       .  S
C671        C672   1.361       .  A
C671        H674   1.083       .  S
C672        C673   1.371       .  A
C672        H675   1.074       .  S
N676        C680   1.354       .  A
N676        C677   1.372       .  A
C677        C678   1.379       .  A
C677        C752   1.439       .  S
C678        C679   1.361       .  A
C678        H681   1.083       .  S
C679        C680   1.370       .  A
C679        H682   1.073       .  S
N683        C684   1.370       .  A
C684        C745   1.433       .  S
C685        C686   1.360       .  A
C685        H688   1.084       .  S
C686        C687   1.365       .  A
C686        H689   1.076       .  S
N690        C691   1.370       .  A
C691        C744   1.434       .  S
C692        C693   1.360       .  A
C692        H695   1.084       .  S
C693        C694   1.366       .  A
C693        H696   1.077       .  S
N697        C698   1.374       .  A
C698        C740   1.456       .  S
C699        C700   1.361       .  A
C699        H702   1.083       .  S
C700        C701   1.378       .  A
C700        H703   1.080       .  S
N704        C705   1.373       .  A
C706        C707   1.361       .  A
C706        H709   1.083       .  S
C707        C708   1.378       .  A
C707        H710   1.080       .  S
O711       Al827   1.906       .  S
C712        C749   1.436       .  S
C712        O722   1.258       .  A
C712        O713   1.255       .  A
O713       Al823   1.903       .  S
O714        C716   1.256       .  A
Al715       O821   1.902       .  S
Al715       O723   1.881   1_556  S
Al715       O724   1.796   1_556  S
C716        C748   1.432       .  S
O717       Al719   1.904       .  S
O718        C731   1.260   1_655  A
Al719       O819   1.907       .  S
Al719       O840   1.927       .  S
Al719       O729   1.934       .  S
O720        C727   1.265   1_655  A
O721        C730   1.268       .  A
O721       Al728   1.939       .  S
O722       Al836   1.907       .  S
O723        C730   1.256       .  A
O724       Al728   1.789       .  S
O725        C726   1.255       .  A
C726        C741   1.433       .  S
C727        C736   1.450       .  S
Al728       O830   1.907   1_554  S
C730        C753   1.437       .  S
C731        C737   1.451       .  S
O732       Al827   1.927       .  S
C733        C734   1.214       .  T
C734        C735   1.425       .  S
C735        C736   1.214       .  T
C737        C738   1.215       .  T
C738        C739   1.426       .  S
C741        C742   1.204       .  T
C742        C743   1.410       .  S
C743        C744   1.204       .  T
C745        C746   1.203       .  T
C746        C747   1.409       .  S
C747        C748   1.204       .  T
C749        C750   1.206       .  T
C750        C751   1.412       .  S
C751        C752   1.206       .  T
C753        C754   1.207       .  T
C754        C755   1.412       .  S
C755        C756   1.207       .  T
C757        H758   1.097       .  S
C757        C763   1.538       .  S
C757        C762   1.555       .  S
C757        C761   1.533       .  S
C759        H760   1.095       .  S
C759        C765   1.555       .  S
C759        C764   1.532       .  S
C759        C766   1.536       .  S
C761        C764   1.339       .  D
C761        C795   1.451       .  S
C762        C765   1.419       .  D
C762        N784   1.472       .  S
C763        C766   1.323       .  D
C763        C816   1.465       .  S
C764        C802   1.451       .  S
C765        N777   1.473       .  S
C766        C809   1.465       .  S
C767        H768   1.084       .  S
C767        C773   1.527       .  S
C767        C772   1.553       .  S
C767        C771   1.561       .  S
C769        H770   1.084       .  S
C769        C775   1.553       .  S
C769        C774   1.561       .  S
C769        C776   1.527       .  S
C771        C774   1.422       .  D
C771        N812   1.486       .  S
C772        C775   1.403       .  D
C772        N791   1.474       .  S
C773        C776   1.331       .  D
C773        C788   1.457       .  S
C774        N805   1.486       .  S
C775        N798   1.474       .  S
C776        C781   1.458       .  S
N777        C781   1.355       .  A
N777        C778   1.373       .  A
C778        C779   1.378       .  A
C778        C864   1.439       .  S
C779        C780   1.361       .  A
C779        H782   1.083       .  S
C780        C781   1.371       .  A
C780        H783   1.074       .  S
N784        C788   1.354       .  A
N784        C785   1.372       .  A
C785        C786   1.379       .  A
C785        C860   1.439       .  S
C786        C787   1.361       .  A
C786        H789   1.083       .  S
C787        C788   1.370       .  A
C787        H790   1.073       .  S
N791        C792   1.370       .  A
C792        C853   1.433       .  S
C793        C794   1.360       .  A
C793        H796   1.084       .  S
C794        C795   1.365       .  A
C794        H797   1.076       .  S
N798        C799   1.370       .  A
C799        C852   1.434       .  S
C800        C801   1.360       .  A
C800        H803   1.084       .  S
C801        C802   1.366       .  A
C801        H804   1.077       .  S
N805        C806   1.374       .  A
C806        C848   1.456       .  S
C807        C808   1.361       .  A
C807        H810   1.083       .  S
C808        C809   1.378       .  A
C808        H811   1.080       .  S
N812        C813   1.373       .  A
C814        C815   1.361       .  A
C814        H817   1.083       .  S
C815        C816   1.378       .  A
C815        H818   1.080       .  S
C820        C857   1.436       .  S
C820        O830   1.258       .  A
C820        O821   1.255       .  A
O822        C824   1.256       .  A
Al823       O831   1.881       .  S
Al823       O832   1.796       .  S
C824        C856   1.432       .  S
O825       Al827   1.904   1_556  S
O826        C839   1.260   1_655  A
Al827       O837   1.934   1_554  S
O828        C835   1.265   1_655  A
O829        C838   1.268       .  A
O829       Al836   1.939       .  S
O831        C838   1.257       .  A
O832       Al836   1.789       .  S
O833        C834   1.255       .  A
C834        C849   1.433       .  S
C835        C844   1.450       .  S
C838        C861   1.437       .  S
C839        C845   1.451       .  S
C841        C842   1.214       .  T
C842        C843   1.425       .  S
C843        C844   1.214       .  T
C845        C846   1.214       .  T
C846        C847   1.426       .  S
C849        C850   1.204       .  T
C850        C851   1.410       .  S
C851        C852   1.204       .  T
C853        C854   1.203       .  T
C854        C855   1.409       .  S
C855        C856   1.204       .  T
C857        C858   1.206       .  T
C858        C859   1.412       .  S
C859        C860   1.206       .  T
C861        C862   1.207       .  T
C862        C863   1.413       .  S
C863        C864   1.207       .  T
