geometry optimzed in LAMMPS
_audit_creation_date              2020-11-30 
_audit_creation_method            'lammps2cif' 
_symmetry_space_group_name_H-M    'P1' 
_symmetry_Int_Tables_number       1 
_symmetry_cell_setting            triclinic 
loop_ 
_symmetry_equiv_pos_as_xyz 
  x,y,z 
_cell_length_a                    38.03662769 
_cell_length_b                    38.09607298141302 
_cell_length_c                    24.049963273761406 
_cell_angle_alpha                 90.1480524848092 
_cell_angle_beta                  89.79641920846792 
_cell_angle_gamma                 119.96882957815451 
loop_ 
_atom_site_label 
_atom_site_type_symbol 
_atom_site_fract_x 
_atom_site_fract_y 
_atom_site_fract_z 
_atom_site_charge 
N1          N  0.77227177  0.20577764  0.00881970    -0.02500
C2          C  0.74465203  0.20485830  0.47720761     0.00100
C3          C  0.73527161  0.23495666  0.48744525    -0.22800
C4          C  0.75519776  0.25207422  0.03602036    -0.23000
C5          C  0.78392538  0.24006853  0.03968657     0.00000
H6          H  0.70863712  0.23572146  0.47350304     0.13700
H7          H  0.75627725  0.27814282  0.05581710     0.13800
N8          N  0.28204877  0.43755399  0.93490012    -0.02500
C9          C  0.32318084  0.45692068  0.93872982     0.00100
C10         C  0.34052245  0.48475513  0.89633159    -0.22800
C11         C  0.29677886  0.48123299  0.38466343    -0.23000
C12         C  0.26119196  0.44933787  0.40560194     0.00000
H13         H  0.37241458  0.50602212  0.89028761     0.13700
H14         H  0.29935565  0.50256188  0.35304649     0.13800
N15         N  0.49190626  0.21344954  0.98077621    -0.02500
C16         C  0.51372074  0.27429708  0.50473740     0.00100
C17         C  0.55001571  0.28959391  0.53322679    -0.22800
C18         C  0.55455942  0.23641082  0.01608481    -0.23000
C19         C  0.51560983  0.20379534  0.01251363     0.00000
H20         H  0.57561322  0.32010734  0.53077250     0.13700
H21         H  0.57983468  0.23763846  0.03834738     0.13800
N22         N  0.24455813  0.73155486  0.99455399    -0.02500
C23         C  0.23308844  0.69430668  0.01700794     0.00100
C24         C  0.26087946  0.68257763  0.00190808    -0.22800
C25         C  0.29211092  0.71571513  0.45730712    -0.23000
C26         C  0.28505283  0.74797510  0.45908470     0.00000
H27         H  0.26034913  0.65489413  0.01356587     0.13700
H28         H  0.31617032  0.71428867  0.43509573     0.13800
N29         N  0.80567939  0.51716516  0.03179309    -0.02500
C30         C  0.80896952  0.48723348  0.51690649     0.00100
C31         C  0.78548142  0.45198956  0.54631670    -0.22800
C32         C  0.77359072  0.45969789  0.08180908    -0.23000
C33         C  0.77479602  0.49563868  0.06864697     0.00000
H34         H  0.78927443  0.42568327  0.54798217     0.13700
H35         H  0.75194747  0.43603265  0.10886294     0.13800
N36         N  0.56024893  0.73148303  0.05801405    -0.02500
C37         C  0.53567247  0.73875756  0.09150191     0.00100
C38         C  0.49900726  0.70317651  0.09814776    -0.22800
C39         C  0.49222731  0.67861855  0.55578133    -0.23000
C40         C  0.53062126  0.69674999  0.53278362     0.00000
H41         H  0.47231648  0.69980854  0.11924189     0.13700
H42         H  0.46757630  0.64831205  0.54746176     0.13800
O43         O  0.09561904  0.03411831  0.02231189    -0.87400
C44         C  0.01790245  0.04154134  0.43618097     0.88600
Mg45       Mg  0.11444054  0.98947822  0.01515636     1.58100
O46         O  0.97532048  0.00009953  0.03945296    -0.87100
O47         O  0.06558119  0.05451059  0.08134052    -0.74500
C48         C  0.94385541  0.81331802  0.46895924     0.93700
O49         O  0.08941024  0.01694870  0.41613659    -0.74300
O50         O  0.98184086  0.83293290  0.45952259    -0.81800
Mg51       Mg  0.09993908  0.06711422  0.47818401     1.58000
C52         C  0.86376864  0.89548943  0.04458792     0.93600
O53         O  0.12033488  0.12822028  0.99754156    -0.80000
H54         H  0.97606306  0.00305126  0.12247701    -0.05400
C55         C  0.95650307  0.91993700  0.42854317     0.88500
O56         O  0.06507425  0.94665225  0.07550258    -0.74600
O57         O  0.03572783  0.04672800  0.48089498    -0.87300
O58         O  0.88021636  0.93178347  0.02690976    -0.80100
C59         C  0.92945925  0.05386514  0.50660666     0.93700
C60         C  0.10250762  0.14700917  0.01486982     0.93600
Mg61       Mg  0.94822962  0.89468739  0.03339188     1.58000
O62         O  0.92635536  0.83033230  0.49341396    -0.80100
O63         O  0.96377513  0.94840480  0.09180162    -0.74300
O64         O  0.96735032  0.07166451  0.51720419    -0.80100
O65         O  0.16759883  0.08783537  0.47472622    -0.81800
O66         O  0.07491147  0.88577714  0.98538470    -0.80200
C67         C  0.97147240  0.98469969  0.08587156     0.88000
O68         O  0.01033456  0.91237469  0.02562276    -0.87300
O69         O  0.95034367  0.92605263  0.47717647    -0.87400
O70         O  0.98429707  0.91210607  0.41574613    -0.74500
Mg71       Mg  0.01863757  0.06315396  0.03179620     1.58000
O72         O  0.90930481  0.01548722  0.50147753    -0.81800
H73         H  0.11134033  0.04429021  0.10248587    -0.05600
O74         O  0.07288676  0.96292050  0.46582320    -0.87100
H75         H  0.07937560  0.96362118  0.38324877    -0.05400
H76         H  0.01230438  0.90097023  0.10627865    -0.05600
C77         C  0.08088786  0.98034395  0.42043410     0.88000
C78         C  0.09205275  0.04453392  0.06974967     0.88600
C79         C  0.02851934  0.91866872  0.07020525     0.88600
H80         H  0.93857667  0.92261395  0.39578156    -0.05500
O81         O  0.98076765  0.01476059  0.43067653    -0.74600
Mg82       Mg  0.02889553  0.89967080  0.46419767     1.58000
H83         H  0.03447049  0.05971117  0.40067235    -0.05600
C84         C  0.18649338  0.06808391  0.47583190     0.93600
O85         O  0.13312129  0.94133786  0.00840409    -0.81800
C86         C  0.11194830  0.90324246  0.00031311     0.93700
O87         O  0.06464129  0.12918433  0.02459809    -0.81800
Mg88       Mg  0.93042045  0.96942472  0.48927556     1.58200
O89         O  0.16789011  0.03074682  0.48931080    -0.80100
O90         O  0.88311656  0.87636160  0.04437409    -0.81800
C91         C  0.01688622  0.46644788  0.26309514    -0.01500
C92         C  0.51815031  0.98044455  0.24308664    -0.01500
C93         C  0.52745499  0.49686262  0.24651063    -0.01500
C94         C  0.75450954  0.87178167  0.06937958    -0.04500
C95         C  0.73385352  0.82921337  0.06396053     0.09600
C96         C  0.74675066  0.80164957  0.55805030    -0.01900
C97         C  0.78929445  0.82145131  0.56259315    -0.00200
C98         C  0.81982325  0.87362468  0.06111682    -0.03800
C99         C  0.79727467  0.89414947  0.06558318     0.03200
C100        C  0.68856893  0.80521935  0.06275731     0.10100
C101        C  0.72407765  0.75853012  0.54587248     0.36000
C102        C  0.81746424  0.93807744  0.06740996     0.39400
C103        C  0.66676368  0.80850092  0.01738536    -0.04100
C104        C  0.62413758  0.78421515  0.01564788     0.03000
C105        C  0.60365165  0.75550797  0.05764094    -0.03700
C106        C  0.61477643  0.75009268  0.59550391     0.00000
C107        C  0.65713251  0.77287226  0.60141271    -0.02500
C108        C  0.68813400  0.83661160  0.97248602     0.36700
C109        C  0.59047321  0.71978830  0.63682123     0.40300
C110        C  0.60128090  0.78861189  0.97092801     0.39500
C111        C  0.67623481  0.76729290  0.65012407     0.36400
C112        C  0.73166658  0.89250659  0.07840752     0.37100
C113        C  0.80843989  0.79679038  0.56591170     0.40300
N114        N  0.58336201  0.79253343  0.93502888    -0.37700
N115        N  0.70525438  0.85928164  0.93692095    -0.39300
N116        N  0.57103580  0.69610857  0.67025302    -0.37100
N117        N  0.69147448  0.76304369  0.68909859    -0.39500
N118        N  0.70595030  0.72416729  0.53633765    -0.39200
N119        N  0.82321468  0.77674384  0.57025224    -0.36900
N120        N  0.83326327  0.97309084  0.06870731    -0.37900
N121        N  0.71340133  0.90896093  0.08565917    -0.39600
C122        C  0.57537570  0.84614878  0.15118351    -0.04500
C123        C  0.54489095  0.85424543  0.13366732     0.09600
C124        C  0.51419110  0.82664277  0.09790086    -0.01900
C125        C  0.51329690  0.79062683  0.08133626    -0.00200
C126        C  0.54115747  0.77996986  0.10413851    -0.03800
C127        C  0.57163328  0.80795556  0.14070142     0.03200
C128        C  0.54129066  0.88806771  0.16022251     0.10100
C129        C  0.48235923  0.83454683  0.08030163     0.36000
C130        C  0.59519646  0.79664112  0.17552582     0.39400
C131        C  0.54395899  0.92012093  0.12853810    -0.04100
C132        C  0.53228106  0.94701463  0.15161126     0.03000
C133        C  0.52803945  0.94929669  0.21130155    -0.03700
C134        C  0.52974025  0.91802937  0.24318973     0.00000
C135        C  0.53230859  0.88622148  0.21712489    -0.02500
C136        C  0.55701861  0.92420324  0.07083492     0.36700
C137        C  0.53179644  0.91880341  0.30348965     0.40300
C138        C  0.51984042  0.96654760  0.11077387     0.39500
C139        C  0.52584065  0.85123886  0.24947625     0.36400
C140        C  0.60931020  0.87635577  0.18351057     0.37100
C141        C  0.47305603  0.76872519  0.53353894     0.40300
N142        N  0.50943764  0.98025915  0.07595027    -0.37700
N143        N  0.56753436  0.92749299  0.02497964    -0.39300
N144        N  0.53479856  0.91775692  0.35123292    -0.37100
N145        N  0.52063872  0.82334701  0.27506782    -0.39500
N146        N  0.45743898  0.84167872  0.06679237    -0.39200
N147        N  0.44846256  0.74770617  0.50216356    -0.36900
N148        N  0.61445417  0.79063300  0.20714000    -0.37900
N149        N  0.63641065  0.90032647  0.20919924    -0.39600
C150        C  0.57422829  0.60660997  0.31872520    -0.04500
C151        C  0.54123910  0.60210192  0.35035825     0.09600
C152        C  0.50326382  0.56739271  0.34256985    -0.01900
C153        C  0.49899881  0.53493049  0.30875975    -0.00200
C154        C  0.53342859  0.53591518  0.28117566    -0.03800
C155        C  0.57061927  0.57497140  0.28329757     0.03200
C156        C  0.54622543  0.63294285  0.39389010     0.10100
C157        C  0.46832250  0.56435093  0.37195849     0.36000
C158        C  0.60469652  0.58644323  0.24591023     0.39400
C159        C  0.52999596  0.65871501  0.38570268    -0.04100
C160        C  0.52762116  0.68161756  0.43050443     0.03000
C161        C  0.54099189  0.67868834  0.48430447    -0.03700
C162        C  0.55924482  0.65448761  0.49156750     0.00000
C163        C  0.56309126  0.63297834  0.44608471    -0.02500
C164        C  0.51479894  0.66080519  0.33132658     0.36700
C165        C  0.59104840  0.65396875  0.05306237     0.40300
C166        C  0.50929770  0.70660089  0.42174679     0.39500
C167        C  0.58430912  0.61054510  0.45305773     0.36400
C168        C  0.61176366  0.64533242  0.32089794     0.37100
C169        C  0.45860109  0.49979012  0.30764496     0.40300
N170        N  0.49458585  0.72643484  0.41449243    -0.37700
N171        N  0.50262213  0.66238562  0.28792552    -0.39300
N172        N  0.60919341  0.65466518  0.09195108    -0.37100
N173        N  0.60211724  0.59347837  0.45817526    -0.39500
N174        N  0.44060256  0.56221172  0.39512037    -0.39200
N175        N  0.42516107  0.47394274  0.30969003    -0.36900
N176        N  0.63232599  0.59743948  0.21634850    -0.37900
N177        N  0.64142251  0.67636713  0.32234657    -0.39600
C178        C  0.91301613  0.70408401  0.93918127    -0.04500
C179        C  0.87482574  0.68245039  0.45883672     0.09600
C180        C  0.85498470  0.70510650  0.46612275    -0.01900
C181        C  0.87669355  0.74760169  0.45930508    -0.00200
C182        C  0.91964831  0.76867225  0.45514984    -0.03800
C183        C  0.93555742  0.74682560  0.93446613     0.03200
C184        C  0.85407883  0.63814673  0.47373725     0.10100
C185        C  0.81280189  0.68517015  0.48342570     0.36000
C186        C  0.97655243  0.76542764  0.91252753     0.39400
C187        C  0.87380974  0.63041083  0.02369213    -0.04100
C188        C  0.85820420  0.58949944  0.03857389     0.03000
C189        C  0.81429433  0.55526852  0.50597956    -0.03700
C190        C  0.79894846  0.56801630  0.46183766     0.00000
C191        C  0.81994323  0.60886281  0.44394327    -0.02500
C192        C  0.90890852  0.66180208  0.05276831     0.36700
C193        C  0.76100170  0.53964327  0.43572862     0.40300
C194        C  0.87819056  0.57939096  0.08159079     0.39500
C195        C  0.80691833  0.62059067  0.39423188     0.36400
C196        C  0.93045344  0.67979283  0.92040214     0.37100
C197        C  0.85445616  0.76903126  0.45243971     0.40300
N198        N  0.89420976  0.57261535  0.11731076    -0.37700
N199        N  0.93676253  0.68687742  0.07606558    -0.39300
N200        N  0.73042506  0.51792171  0.41448850    -0.37100
N201        N  0.79667706  0.62989040  0.35435273    -0.39500
N202        N  0.77922763  0.66925569  0.49763425    -0.39200
N203        N  0.83674049  0.78598974  0.44502019    -0.36900
N204        N  0.00920750  0.77996941  0.89486755    -0.37900
N205        N  0.94420855  0.66030666  0.90544959    -0.39600
C206        C  0.71555726  0.54034372  0.14184312    -0.04500
C207        C  0.67522987  0.50823190  0.13551006     0.09600
C208        C  0.66810172  0.47435042  0.10302354    -0.01900
C209        C  0.70058534  0.47319697  0.07620016    -0.00200
C210        C  0.74140264  0.50357715  0.08651578    -0.03800
C211        C  0.74854393  0.53692346  0.12053684     0.03200
C212        C  0.64004818  0.50971912  0.16282013     0.10100
C213        C  0.62729959  0.43989476  0.09842891     0.36000
C214        C  0.78910347  0.56601754  0.13854378     0.39400
C215        C  0.61006780  0.51063538  0.13017519    -0.04100
C216        C  0.57332711  0.50479063  0.15422000     0.03000
C217        C  0.56822738  0.50498458  0.21414686    -0.03700
C218        C  0.60216857  0.50874257  0.24619021     0.00000
C219        C  0.63555722  0.50808270  0.22083750    -0.02500
C220        C  0.61645460  0.51544678  0.07025386     0.36700
C221        C  0.60534340  0.51594665  0.30575148     0.40300
C222        C  0.54142149  0.49437815  0.11399839     0.39500
C223        C  0.66555436  0.50536688  0.25503660     0.36400
C224        C  0.72312249  0.57687603  0.17089932     0.37100
C225        C  0.69174723  0.44011226  0.03818080     0.40300
N226        N  0.51805826  0.48545027  0.07839879    -0.37700
N227        N  0.62165414  0.51882083  0.02266687    -0.39300
N228        N  0.61081007  0.52314383  0.35276418    -0.37100
N229        N  0.68938625  0.50316575  0.28231374    -0.39500
N230        N  0.59481322  0.41237028  0.09486891    -0.39200
N231        N  0.67604589  0.42824112  0.47083309    -0.36900
N232        N  0.82055461  0.58974716  0.15562800    -0.37900
N233        N  0.72907500  0.60608374  0.19381986    -0.39600
C234        C  0.93117867  0.44606027  0.37364967    -0.04500
C235        C  0.93327971  0.48363430  0.37920333     0.09600
C236        C  0.96310365  0.51703771  0.35003332    -0.01900
C237        C  0.98958125  0.51290045  0.31227364    -0.00200
C238        C  0.98977688  0.47492835  0.30694310    -0.03800
C239        C  0.95921336  0.44165012  0.33965142     0.03200
C240        C  0.90276252  0.48775036  0.41442493     0.10100
C241        C  0.96510476  0.55595726  0.35736215     0.36000
C242        C  0.95657569  0.40233749  0.34212949     0.39400
C243        C  0.90651892  0.49010860  0.47274534    -0.04100
C244        C  0.87717005  0.49255530  0.50595026     0.03000
C245        C  0.84350859  0.49266080  0.48116446    -0.03700
C246        C  0.83909924  0.48888233  0.42269483     0.00000
C247        C  0.86901551  0.48728520  0.38946943    -0.02500
C248        C  0.93939447  0.48753569  0.49876217     0.36700
C249        C  0.80159631  0.48130731  0.39691273     0.40300
C250        C  0.89640966  0.49952625  0.06405210     0.39500
C251        C  0.86385750  0.48255951  0.32964573     0.36400
C252        C  0.89969665  0.41147182  0.40380286     0.37100
C253        C  0.01153325  0.54748351  0.27578877     0.40300
N254        N  0.89957358  0.49755376  0.11154569    -0.37700
N255        N  0.96517020  0.48466393  0.51957155    -0.39300
N256        N  0.77161935  0.47383589  0.37500703    -0.37100
N257        N  0.85971775  0.47862464  0.28196019    -0.39500
N258        N  0.96654286  0.58681507  0.36314028    -0.39200
N259        N  0.02729359  0.57581357  0.24748623    -0.36900
N260        N  0.95252708  0.37036150  0.34777166    -0.37900
N261        N  0.87467884  0.38404095  0.42791532    -0.39600
C262        C  0.22437888  0.81707556  0.02532695    -0.04500
C263        C  0.18451021  0.80099279  0.00513084     0.09600
C264        C  0.17307877  0.77072768  0.48998923    -0.01900
C265        C  0.19216452  0.74759137  0.48157762    -0.00200
C266        C  0.22383163  0.75458167  0.99945196    -0.03800
C267        C  0.24381466  0.79385603  0.02304321     0.03200
C268        C  0.16510617  0.82679670  0.00445945     0.10100
C269        C  0.13220620  0.75614047  0.46958838     0.36000
C270        C  0.28368943  0.80985675  0.04748006     0.39400
C271        C  0.16332500  0.84491724  0.95423533    -0.04100
C272        C  0.14629606  0.87029121  0.95347574     0.03000
C273        C  0.13156626  0.87826471  0.00303912    -0.03700
C274        C  0.13326000  0.86022797  0.05333122     0.00000
C275        C  0.14979507  0.83427565  0.05398448    -0.02500
C276        C  0.17911702  0.83747128  0.90328891     0.36700
C277        C  0.11760702  0.86803945  0.10407485     0.40300
C278        C  0.14350496  0.88797836  0.90144948     0.39500
C279        C  0.13941290  0.79938691  0.60724544     0.36400
C280        C  0.24554559  0.85783247  0.04800255     0.37100
C281        C  0.17142753  0.71037640  0.44981444     0.40300
N282        N  0.14103199  0.90199748  0.86004535    -0.37700
N283        N  0.19157680  0.83140335  0.86263035    -0.39300
N284        N  0.07424348  0.83937557  0.64244329    -0.37100
N285        N  0.13361237  0.77605730  0.64189071    -0.39500
N286        N  0.09960578  0.74462220  0.45347480    -0.39200
N287        N  0.15424157  0.68102406  0.42378905    -0.36900
N288        N  0.31530934  0.82320240  0.06792927    -0.37900
N289        N  0.26225661  0.89031809  0.06614259    -0.39600
C290        C  0.11106153  0.57076117  0.21507166    -0.04500
C291        C  0.10239488  0.57528051  0.15970310     0.09600
C292        C  0.06444156  0.54668450  0.13820574    -0.01900
C293        C  0.03959236  0.50969164  0.16642006    -0.00200
C294        C  0.04507198  0.50564163  0.22510390    -0.03800
C295        C  0.08137927  0.53929853  0.24875371     0.03200
C296        C  0.13413200  0.60737306  0.12177521     0.10100
C297        C  0.05224619  0.55512221  0.08503340     0.36000
C298        C  0.08855473  0.54399425  0.30825642     0.39400
C299        C  0.14659590  0.59545823  0.07329084    -0.04100
C300        C  0.17396952  0.62472321  0.03567761     0.03000
C301        C  0.19541160  0.66642911  0.05008447    -0.03700
C302        C  0.18391487  0.67842834  0.09963079     0.00000
C303        C  0.15138708  0.64932834  0.13277106    -0.02500
C304        C  0.13228442  0.55289066  0.06254395     0.36700
C305        C  0.20689031  0.71963926  0.11972026     0.40300
C306        C  0.18179229  0.62175018  0.46662917     0.39500
C307        C  0.13570421  0.66261835  0.17823645     0.36400
C308        C  0.15079470  0.59856096  0.23785222     0.37100
C309        C  0.01467278  0.47596862  0.13024279     0.40300
N310        N  0.18627910  0.61581229  0.42066211    -0.37700
N311        N  0.12108014  0.51901914  0.05398534    -0.39300
N312        N  0.22465469  0.75198794  0.13812533    -0.37100
N313        N  0.12301080  0.67320879  0.21433248    -0.39500
N314        N  0.04411008  0.56384145  0.04292108    -0.39200
N315        N  0.99659782  0.44968695  0.09930448    -0.36900
N316        N  0.09588639  0.55040469  0.35509728    -0.37900
N317        N  0.18241994  0.62066053  0.25615089    -0.39600
C318        C  0.41239933  0.88566115  0.28425510    -0.04500
C319        C  0.40874791  0.89054665  0.34142928     0.09600
C320        C  0.43864524  0.92565339  0.36772469    -0.01900
C321        C  0.47507790  0.95265512  0.33964609    -0.00200
C322        C  0.47871718  0.95078260  0.27972457    -0.03800
C323        C  0.44497785  0.91620743  0.25314603     0.03200
C324        C  0.37616305  0.85661970  0.37552065     0.10100
C325        C  0.43285539  0.93246646  0.42582310     0.36000
C326        C  0.44170897  0.91152354  0.19309548     0.39400
C327        C  0.38704253  0.83566152  0.41378717    -0.04100
C328        C  0.35703749  0.80351661  0.44533731     0.03000
C329        C  0.31517170  0.78848436  0.43482975    -0.03700
C330        C  0.30424301  0.80936656  0.39611452     0.00000
C331        C  0.33471011  0.84451592  0.36890783    -0.02500
C332        C  0.42914453  0.84592010  0.41913334     0.36700
C333        C  0.26232696  0.79349665  0.38025682     0.40300
C334        C  0.36285919  0.78944092  0.99903779     0.39500
C335        C  0.32348364  0.86794616  0.33321107     0.36400
C336        C  0.38246999  0.84854828  0.25710343     0.37100
C337        C  0.50868853  0.97663775  0.37669155     0.40300
N338        N  0.37302189  0.77845979  0.03733774    -0.37700
N339        N  0.46258520  0.85375894  0.42343415    -0.39300
N340        N  0.22930120  0.78163310  0.36575708    -0.37100
N341        N  0.31467727  0.88684540  0.30489844    -0.39500
N342        N  0.42818354  0.93778816  0.47200115    -0.39200
N343        N  0.53413555  0.99383621  0.40906347    -0.36900
N344        N  0.43654715  0.90603838  0.14572601    -0.37900
N345        N  0.35869097  0.81901171  0.23542609    -0.39600
C346        C  0.37813120  0.15181252  0.00034337    -0.04500
C347        C  0.36303158  0.15913863  0.47969220     0.09600
C348        C  0.39183101  0.17372254  0.43619414    -0.01900
C349        C  0.43359028  0.19851272  0.44813984    -0.00200
C350        C  0.44675970  0.20883039  0.50379467    -0.03800
C351        C  0.41999021  0.17305823  0.01224501     0.03200
C352        C  0.31848852  0.13451952  0.46786271     0.10100
C353        C  0.37836558  0.16297268  0.37920149     0.36000
C354        C  0.43238640  0.18266452  0.06964943     0.39400
C355        C  0.29641036  0.15391620  0.45435822    -0.04100
C356        C  0.25362589  0.13146489  0.45060443     0.03000
C357        C  0.23192201  0.08962562  0.46537661    -0.03700
C358        C  0.25497208  0.06996607  0.47540332     0.00000
C359        C  0.29785950  0.09232258  0.47559317    -0.02500
C360        C  0.31781560  0.19761081  0.44735549     0.36700
C361        C  0.23558299  0.02704217  0.48775357     0.40300
C362        C  0.23261695  0.15205643  0.43113333     0.39500
C363        C  0.32107188  0.07220435  0.48627085     0.36400
C364        C  0.34878001  0.13545220  0.04543668     0.37100
C365        C  0.46272395  0.21326690  0.40300123     0.40300
N366        N  0.21612930  0.16861449  0.41501909    -0.37700
N367        N  0.33506886  0.23249595  0.44249125    -0.39300
N368        N  0.22096535  0.99296450  0.49829612    -0.37100
N369        N  0.33960514  0.05622254  0.49474257    -0.39500
N370        N  0.36759499  0.15435384  0.33371766    -0.39200
N371        N  0.48546438  0.22471001  0.36624635    -0.36900
N372        N  0.44010133  0.19011436  0.11620296    -0.37900
N373        N  0.32527940  0.12242123  0.08121308    -0.39600
C374        C  0.53887838  0.06634442  0.13355912    -0.04500
C375        C  0.50130717  0.06429933  0.12862428     0.09600
C376        C  0.46786605  0.03466025  0.15788529    -0.01900
C377        C  0.47207557  0.00848930  0.19571389    -0.00200
C378        C  0.51024464  0.00871669  0.20125906    -0.03800
C379        C  0.54384727  0.03979423  0.16947088     0.03200
C380        C  0.49868415  0.09752047  0.09907711     0.10100
C381        C  0.42884010  0.03239396  0.15022572     0.36000
C382        C  0.58418034  0.04458608  0.16981940     0.39400
C383        C  0.49060661  0.09524832  0.04157899    -0.04100
C384        C  0.49265038  0.12882830  0.01343939     0.03000
C385        C  0.50366282  0.16515802  0.04266370    -0.03700
C386        C  0.51081891  0.16674633  0.10073752     0.00000
C387        C  0.50736528  0.13282293  0.12883370    -0.02500
C388        C  0.48200546  0.05894884  0.01113333     0.36700
C389        C  0.52333404  0.20393172  0.13170538     0.40300
C390        C  0.49395470  0.15526178  0.48180258     0.39500
C391        C  0.51428217  0.13471553  0.18840013     0.36400
C392        C  0.57265876  0.09573329  0.09986689     0.37100
C393        C  0.43735227  0.98633990  0.23208775     0.40300
N394        N  0.49617570  0.15814144  0.43387932    -0.37700
N395        N  0.47533301  0.03000822  0.98688535    -0.39300
N396        N  0.53329834  0.23355043  0.15637473    -0.37100
N397        N  0.51968910  0.13619413  0.23588268    -0.39500
N398        N  0.39783120  0.03057330  0.14381501    -0.39200
N399        N  0.40891865  0.97024142  0.26034783    -0.36900
N400        N  0.61720632  0.05087132  0.16679070    -0.37900
N401        N  0.59932979  0.11875382  0.07253460    -0.39600
C402        C  0.47438396  0.33471398  0.42386395    -0.04500
C403        C  0.50622140  0.35543583  0.38488648     0.09600
C404        C  0.53761368  0.34590071  0.38212754    -0.01900
C405        C  0.53729882  0.31643608  0.41785234    -0.00200
C406        C  0.50760704  0.29846783  0.46040137    -0.03800
C407        C  0.47611147  0.30794714  0.46320023     0.03200
C408        C  0.50893348  0.38999776  0.35059306     0.10100
C409        C  0.57145032  0.36774210  0.34417091     0.36000
C410        C  0.44736091  0.29317734  0.50883327     0.39400
C411        C  0.51532339  0.42560165  0.37690162    -0.04100
C412        C  0.51847806  0.45881131  0.34598204     0.03000
C413        C  0.51854195  0.45878422  0.28558792    -0.03700
C414        C  0.51458136  0.42238595  0.26023476     0.00000
C415        C  0.50776441  0.38829910  0.29231411    -0.02500
C416        C  0.52069568  0.42876781  0.43706691     0.36700
C417        C  0.51414242  0.41735890  0.20030194     0.40300
C418        C  0.52474925  0.49275846  0.38013154     0.39500
C419        C  0.49895062  0.35067181  0.26500246     0.36400
C420        C  0.44040428  0.34199046  0.42450765     0.37100
C421        C  0.56808833  0.30483604  0.41092812     0.40300
N422        N  0.52987236  0.51795205  0.41151292    -0.37700
N423        N  0.52509019  0.43149236  0.48477792    -0.39300
N424        N  0.51266815  0.41071609  0.15312094    -0.37100
N425        N  0.49203049  0.32075374  0.24327690    -0.39500
N426        N  0.59840158  0.38512472  0.31386708    -0.39200
N427        N  0.59246460  0.29538445  0.40541324    -0.36900
N428        N  0.43267593  0.26062619  0.02877025    -0.37900
N429        N  0.41331141  0.34781151  0.42484223    -0.39600
C430        C  0.13953689  0.25768430  0.98610912    -0.04500
C431        C  0.17681008  0.27646995  0.01475992     0.09600
C432        C  0.18752590  0.25317775  0.04879251    -0.01900
C433        C  0.16197811  0.21077607  0.05165776    -0.00200
C434        C  0.12621598  0.19164539  0.01950852    -0.03800
C435        C  0.11460685  0.21532812  0.98765439     0.03200
C436        C  0.20729093  0.31907152  0.00033725     0.10100
C437        C  0.21300511  0.27583715  0.59899976     0.36000
C438        C  0.07882300  0.19601426  0.95259431     0.39400
C439        C  0.20437319  0.35185282  0.02262364    -0.04100
C440        C  0.22866689  0.39120779  0.00076630     0.03000
C441        C  0.25622351  0.39774924  0.95738319    -0.03700
C442        C  0.24653792  0.35892686  0.45022658     0.00000
C443        C  0.22133993  0.31977658  0.47121859    -0.02500
C444        C  0.17538414  0.34465870  0.06659932     0.36700
C445        C  0.27268487  0.36443312  0.40318747     0.40300
C446        C  0.22339359  0.42423616  0.02024044     0.39500
C447        C  0.22520155  0.28607573  0.45022548     0.36400
C448        C  0.12809470  0.28189155  0.95226831     0.37100
C449        C  0.16744617  0.18962631  0.61342787     0.40300
N450        N  0.21812954  0.45004516  0.03568128    -0.37700
N451        N  0.15215828  0.33880027  0.10164235    -0.39300
N452        N  0.29184190  0.36778009  0.36399482    -0.37100
N453        N  0.22825586  0.25918056  0.43363316    -0.39500
N454        N  0.24270304  0.29535251  0.62349333    -0.39200
N455        N  0.17901060  0.17392222  0.64342644    -0.36900
N456        N  0.05055033  0.18067978  0.92420026    -0.37900
N457        N  0.11909077  0.30139679  0.92559528    -0.39600
C458        C  0.42361255  0.44018118  0.15984053    -0.08000
C459        C  0.42799463  0.47078208  0.12351995     0.09600
C460        C  0.46100190  0.51003679  0.13027885    -0.01900
C461        C  0.49141194  0.51830705  0.17033792    -0.00200
C462        C  0.49018827  0.48677872  0.20517700    -0.03800
C463        C  0.45240738  0.44831097  0.20246925     0.03200
C464        C  0.39723377  0.46232134  0.07866686     0.10100
C465        C  0.46499641  0.54185599  0.09293871     0.36000
C466        C  0.43837080  0.41787316  0.24599805     0.39400
C467        C  0.37033659  0.47758776  0.08338099    -0.04100
C468        C  0.34586508  0.47524489  0.03789043     0.03000
C469        C  0.34629886  0.45556077  0.98812389    -0.03700
C470        C  0.37173279  0.43836233  0.98467100     0.00000
C471        C  0.39711212  0.44185448  0.02964650    -0.02500
C472        C  0.36862570  0.49657000  0.13492072     0.36700
C473        C  0.37277732  0.41739102  0.93504386     0.40300
C474        C  0.32292140  0.49620778  0.04095330     0.39500
C475        C  0.42357013  0.42472352  0.02516012     0.36400
C476        C  0.38811024  0.40005247  0.15422913     0.37100
C477        C  0.52488503  0.55962911  0.17113924     0.40300
N478        N  0.30550299  0.51384045  0.04365747    -0.37700
N479        N  0.36737490  0.51159738  0.17619536    -0.39300
N480        N  0.37460570  0.41290668  0.40074045    -0.37100
N481        N  0.44422985  0.41057008  0.02151281    -0.39500
N482        N  0.46819291  0.56709537  0.06315326    -0.39200
N483        N  0.54972676  0.59340965  0.16886569    -0.36900
N484        N  0.42528815  0.39313796  0.28013239    -0.37900
N485        N  0.35997987  0.36808166  0.14950110    -0.39600
C486        C  0.08208888  0.44360368  0.37223507    -0.04500
C487        C  0.11192070  0.44371488  0.33759543     0.09600
C488        C  0.11110608  0.45063462  0.28049687    -0.01900
C489        C  0.07918439  0.45458521  0.25736607    -0.00200
C490        C  0.04949006  0.45743595  0.29198306    -0.03800
C491        C  0.05425104  0.45472736  0.35126746     0.03200
C492        C  0.14723724  0.44154878  0.36179181     0.10100
C493        C  0.14361804  0.45381700  0.24501279     0.36000
C494        C  0.03596804  0.46801863  0.39321617     0.39400
C495        C  0.15331733  0.40865234  0.34983699    -0.04100
C496        C  0.19011917  0.41035029  0.36470330     0.03000
C497        C  0.22043610  0.44436722  0.39368379    -0.03700
C498        C  0.21300420  0.47602198  0.40868818     0.00000
C499        C  0.17684282  0.47466548  0.39248549    -0.02500
C500        C  0.12193815  0.37342208  0.32111521     0.36700
C501        C  0.24292841  0.51061568  0.44022233     0.40300
C502        C  0.19724489  0.37814581  0.34675089     0.39500
C503        C  0.17035281  0.50794839  0.40632676     0.36400
C504        C  0.08146828  0.43391953  0.43083958     0.37100
C505        C  0.07647245  0.45291680  0.19708396     0.40300
N506        N  0.20160444  0.35185741  0.33093896    -0.37700
N507        N  0.09693383  0.34527916  0.29821925    -0.39300
N508        N  0.26669354  0.53830855  0.46521252    -0.37100
N509        N  0.16419575  0.53386529  0.41760859    -0.39500
N510        N  0.16956374  0.45647841  0.21682655    -0.39200
N511        N  0.07578438  0.45053421  0.14908339    -0.36900
N512        N  0.02316440  0.47918069  0.42852837    -0.37900
N513        N  0.08090017  0.42620537  0.47746722    -0.39600
C514        C  0.84808926  0.08361923  0.47567514    -0.04500
C515        C  0.86631004  0.12344340  0.49675285     0.09600
C516        C  0.90281770  0.14043937  0.00790749    -0.01900
C517        C  0.92627894  0.12100779  0.00627640    -0.00200
C518        C  0.90817287  0.07844169  0.50159828    -0.03800
C519        C  0.86907263  0.06163992  0.47663263     0.03200
C520        C  0.84345253  0.14634649  0.49736059     0.10100
C521        C  0.91924880  0.18025967  0.03307229     0.36000
C522        C  0.84980532  0.02168550  0.45140233     0.39400
C523        C  0.82763273  0.15175966  0.54777061    -0.04100
C524        C  0.80652665  0.17353107  0.54890049     0.03000
C525        C  0.80140848  0.19078892  0.49973184    -0.03700
C526        C  0.80965897  0.18097425  0.95010551     0.00000
C527        C  0.83798094  0.16304757  0.44803177    -0.02500
C528        C  0.83313681  0.13479804  0.59877824     0.36700
C529        C  0.80549317  0.20147792  0.90221861     0.40300
C530        C  0.78873714  0.17636594  0.60072883     0.39500
C531        C  0.84936450  0.15954255  0.89122712     0.36400
C532        C  0.80705894  0.06482056  0.45401004     0.37100
C533        C  0.96555474  0.14062838  0.03343803     0.40300
N534        N  0.77442576  0.17673953  0.64308697    -0.37700
N535        N  0.83785623  0.12156650  0.63949260    -0.39300
N536        N  0.80393380  0.21807425  0.86290542    -0.37100
N537        N  0.86317555  0.15863506  0.84865933    -0.39500
N538        N  0.93218313  0.21201159  0.05302385    -0.39200
N539        N  0.99679843  0.15654297  0.05532954    -0.36900
N540        N  0.83426927  0.98981131  0.43128035    -0.37900
N541        N  0.77429528  0.04979971  0.43692095    -0.39600
C542        C  0.91889974  0.39484377  0.17395949    -0.04500
C543        C  0.92068404  0.35920469  0.16729407     0.09600
C544        C  0.95229430  0.35630581  0.19207720    -0.01900
C545        C  0.98231114  0.38870447  0.22417244    -0.00200
C546        C  0.98369234  0.42757559  0.22828524    -0.03800
C547        C  0.94926447  0.42825495  0.20402077     0.03200
C548        C  0.88742643  0.32355828  0.13680797     0.10100
C549        C  0.95243312  0.31826915  0.18672161     0.36000
C550        C  0.94473217  0.46381684  0.20691782     0.39400
C551        C  0.89313436  0.31513679  0.08141677    -0.04100
C552        C  0.86005075  0.28550519  0.05019809     0.03000
C553        C  0.82109596  0.26312984  0.07476383    -0.03700
C554        C  0.81629345  0.27009027  0.13164650     0.00000
C555        C  0.84936485  0.29973489  0.16249808    -0.02500
C556        C  0.93287343  0.33829928  0.05584494     0.36700
C557        C  0.77656692  0.24875868  0.15781512     0.40300
C558        C  0.87460487  0.29485877  0.47690449     0.39500
C559        C  0.84400053  0.30683477  0.22045205     0.36400
C560        C  0.88553913  0.39725594  0.14847854     0.37100
C561        C  0.00688317  0.37735337  0.25727374     0.40300
N562        N  0.87988259  0.29288146  0.42986524    -0.37700
N563        N  0.96465266  0.35657054  0.03561586    -0.39300
N564        N  0.74488530  0.23223789  0.17867819    -0.37100
N565        N  0.83989574  0.31264254  0.26664685    -0.39500
N566        N  0.95244820  0.28800654  0.18249674    -0.39200
N567        N  0.02464100  0.36584854  0.28333609    -0.36900
N568        N  0.93946482  0.49119627  0.20808653    -0.37900
N569        N  0.85885751  0.39888451  0.12815031    -0.39600
C570        C  0.62626639  0.04360846  0.31823118    -0.04500
C571        C  0.62166018  0.07329393  0.34602056     0.09600
C572        C  0.58565481  0.07444117  0.34000763    -0.01900
C573        C  0.55329709  0.04504431  0.30761392    -0.00200
C574        C  0.55575003  0.01247004  0.28013665    -0.03800
C575        C  0.59483949  0.01436034  0.28428645     0.03200
C576        C  0.65628746  0.10566918  0.37847511     0.10100
C577        C  0.58166496  0.10595059  0.36872852     0.36000
C578        C  0.60719493  0.99098305  0.24998942     0.39400
C579        C  0.68076039  0.14402402  0.35428465    -0.04100
C580        C  0.71062809  0.17597553  0.38616157     0.03000
C581        C  0.71820445  0.16922606  0.44170002    -0.03700
C582        C  0.69454450  0.13023055  0.46521385     0.00000
C583        C  0.66361889  0.09858275  0.43363312    -0.02500
C584        C  0.67441740  0.15073966  0.29669782     0.36700
C585        C  0.68986766  0.11312637  0.02588017     0.40300
C586        C  0.73167796  0.21647739  0.36263586     0.39500
C587        C  0.63818584  0.05906812  0.45851121     0.36400
C588        C  0.66515131  0.04498026  0.32228594     0.37100
C589        C  0.51654367  0.04775451  0.30752604     0.40300
N590        N  0.74802639  0.24883484  0.34411602    -0.37700
N591        N  0.66930244  0.15584680  0.25071394    -0.39300
N592        N  0.69219480  0.10448486  0.07124598    -0.37100
N593        N  0.61793275  0.02758147  0.47844824    -0.39500
N594        N  0.57852349  0.13101606  0.39160196    -0.39200
N595        N  0.48841580  0.05183629  0.31045072    -0.36900
N596        N  0.61940293  0.97411622  0.22307614    -0.37900
N597        N  0.69619321  0.04639280  0.32533007    -0.39600
N598        N  0.78078598  0.21423919  0.50119464    -0.02500
C599        C  0.73562118  0.19652833  0.98654841     0.00100
C600        C  0.72465947  0.22448430  0.00298453    -0.22800
C601        C  0.76652622  0.26418329  0.51787381    -0.23000
C602        C  0.79388682  0.25090716  0.52610230     0.00000
H603        H  0.69729483  0.22480778  0.99172612     0.13700
H604        H  0.76893110  0.29205798  0.53311720     0.13800
N605        N  0.26984358  0.43180633  0.44845355    -0.02500
C606        C  0.31086567  0.45270522  0.45455588     0.00100
C607        C  0.32814630  0.48334265  0.41566816    -0.22800
C608        C  0.30900007  0.48243581  0.86542753    -0.23000
C609        C  0.27315441  0.45341555  0.89006775     0.00000
H610        H  0.35979055  0.50634642  0.41262125     0.13700
H611        H  0.31187143  0.50198349  0.83105073     0.13800
N612        N  0.48937021  0.23419061  0.51713352    -0.02500
C613        C  0.51677299  0.25278302  0.96485447     0.00100
C614        C  0.55512418  0.26739938  0.98693265    -0.22800
C615        C  0.54863762  0.25819287  0.56273781    -0.23000
C616        C  0.51124291  0.22448054  0.55256921     0.00000
H617        H  0.58104965  0.29747184  0.98175455     0.13700
H618        H  0.57274091  0.25960160  0.58813563     0.13800
N619        N  0.25174923  0.73815394  0.49149663    -0.02500
C620        C  0.23897913  0.69994833  0.51100231     0.00100
C621        C  0.26436902  0.68640097  0.49148748    -0.22800
C622        C  0.28922098  0.71220403  0.96841022    -0.23000
C623        C  0.27937829  0.74247361  0.96501016     0.00000
H624        H  0.26207039  0.65740416  0.49974134     0.13700
H625        H  0.31516434  0.71222994  0.94972423     0.13800
N626        N  0.79435727  0.51324374  0.52318059    -0.02500
C627        C  0.82308850  0.49387734  0.02141474     0.00100
C628        C  0.80357988  0.45841101  0.05173751    -0.22800
C629        C  0.75551687  0.45616349  0.57178951    -0.23000
C630        C  0.76130609  0.49378668  0.55705158     0.00000
H631        H  0.81027529  0.43393323  0.05154751     0.13700
H632        H  0.73095452  0.43344865  0.59670190     0.13800
N633        N  0.55191059  0.73629109  0.54871983    -0.02500
C634        C  0.52678630  0.74345312  0.58144876     0.00100
C635        C  0.48991876  0.70783601  0.58689124    -0.22800
C636        C  0.50113021  0.67375963  0.06722579    -0.23000
C637        C  0.53925139  0.69177472  0.04321182     0.00000
H638        H  0.46300623  0.70433536  0.60747572     0.13700
H639        H  0.47639559  0.64341656  0.05956734     0.13800
O640        O  0.09137041  0.02922608  0.54895870    -0.87400
C641        C  0.01933049  0.04339285  0.91042633     0.88600
Mg642      Mg  0.11072560  0.98549183  0.53828344     1.58100
O643        O  0.96923095  0.99214277  0.56082646    -0.87100
O644        O  0.05837514  0.04554005  0.60879862    -0.74500
C645        C  0.94384992  0.81609003  0.96022212     0.93700
O646        O  0.08935086  0.01653293  0.89041975    -0.74300
O647        O  0.98143369  0.83454429  0.94776079    -0.81800
Mg648      Mg  0.10220553  0.06930687  0.94871952     1.58000
C649        C  0.85706461  0.88656618  0.55378513     0.93600
O650        O  0.11579183  0.12398313  0.53049847    -0.80000
H651        H  0.96589569  0.99138600  0.64383447    -0.05400
C652        C  0.95726985  0.92193143  0.91259348     0.88500
O653        O  0.05990165  0.94021624  0.59538791    -0.74600
O654        O  0.03855194  0.05042522  0.95427163    -0.87300
O655        O  0.87421313  0.92355803  0.53872687    -0.80100
C656        C  0.93351881  0.05920688  0.98372664     0.93700
C657        C  0.09603762  0.14134343  0.54550082     0.93600
Mg658      Mg  0.94307449  0.88747682  0.54717112     1.58000
O659        O  0.92821538  0.83499227  0.98436217    -0.80100
O660        O  0.95530361  0.93822609  0.60958978    -0.74300
O661        O  0.97185698  0.07795525  0.99133978    -0.80100
O662        O  0.16916066  0.08888102  0.94160647    -0.81800
O663        O  0.07373422  0.88265431  0.50389858    -0.80200
C664        C  0.96319711  0.97473022  0.60609780     0.88000
O665        O  0.00620124  0.90675802  0.54300667    -0.87300
O666        O  0.95317904  0.93024296  0.96103395    -0.87400
O667        O  0.98416912  0.91301399  0.89907707    -0.74500
Mg668      Mg  0.01274407  0.05562038  0.55838267     1.58000
O669        O  0.91360116  0.02071353  0.98122275    -0.81800
H670        H  0.10420524  0.03549272  0.63017605    -0.05600
O671        O  0.07489451  0.96461511  0.94377845    -0.87100
H672        H  0.07880858  0.96213874  0.86112348    -0.05400
H673        H  0.00657623  0.89363023  0.62336140    -0.05600
C674        C  0.08141638  0.98027908  0.89721497     0.88000
C675        C  0.08585595  0.03699856  0.59705289     0.88600
C676        C  0.02346135  0.91224630  0.58828175     0.88600
H677        H  0.93830272  0.92361358  0.88052597    -0.05500
O678        O  0.98202695  0.01652473  0.90768509    -0.74600
Mg679      Mg  0.02969165  0.90159894  0.94665597     1.58000
H680        H  0.03480174  0.05993402  0.87330850    -0.05600
C681        C  0.18873524  0.07003143  0.94703031     0.93600
O682        O  0.13062025  0.93905506  0.52798488    -0.81800
C683        C  0.11089631  0.90114379  0.51862958     0.93700
O684        O  0.05813007  0.12185502  0.55486790    -0.81800
Mg685      Mg  0.93397478  0.97426683  0.97121231     1.58200
O686        O  0.17150841  0.03368012  0.96506177    -0.80100
O687        O  0.87656919  0.86750511  0.55432922    -0.81800
C688        C  0.02567495  0.47216690  0.75591780    -0.01500
C689        C  0.50504607  0.98139820  0.74512874    -0.01500
C690        C  0.51881523  0.48657248  0.75137000    -0.01500
C691        C  0.74838935  0.86514649  0.57792544    -0.04500
C692        C  0.72615490  0.82352696  0.56488210     0.09600
C693        C  0.75618847  0.80884367  0.06180045    -0.01900
C694        C  0.79860837  0.83071791  0.06607474    -0.00200
C695        C  0.81232387  0.86442262  0.56643890    -0.03800
C696        C  0.79126392  0.88587510  0.57708726     0.03200
C697        C  0.68084126  0.80200813  0.56097508     0.10100
C698        C  0.73561755  0.76523139  0.05352558     0.36000
C699        C  0.81322981  0.92898689  0.58911513     0.39400
C700        C  0.66153821  0.80960196  0.51613705    -0.04100
C701        C  0.61876666  0.78848124  0.51242139     0.03000
C702        C  0.59546596  0.75855590  0.55184044    -0.03700
C703        C  0.62545251  0.75115381  0.10168899     0.00000
C704        C  0.66749201  0.77719704  0.10573146    -0.02500
C705        C  0.68569527  0.83873136  0.47361508     0.36700
C706        C  0.60384309  0.72125189  0.14476970     0.40300
C707        C  0.59861138  0.79745130  0.46841933     0.39500
C708        C  0.68889816  0.77579106  0.15478925     0.36400
C709        C  0.72696934  0.88637739  0.59319677     0.37100
C710        C  0.81950798  0.80848633  0.07806292     0.40300
N711        N  0.58274367  0.80501331  0.43330462    -0.37700
N712        N  0.70506407  0.86199428  0.43973064    -0.39300
N713        N  0.58646706  0.69779679  0.17944156    -0.37100
N714        N  0.70591890  0.77469532  0.19394750    -0.39500
N715        N  0.71925186  0.73053678  0.04664856    -0.39200
N716        N  0.83586387  0.79063179  0.08871908    -0.36900
N717        N  0.83055203  0.96336569  0.59872032    -0.37900
N718        N  0.70977022  0.90307734  0.60591040    -0.39600
C719        C  0.56407161  0.84942566  0.64586325    -0.04500
C720        C  0.53299795  0.85712295  0.62945993     0.09600
C721        C  0.50305831  0.82997712  0.59234350    -0.01900
C722        C  0.50343913  0.79494684  0.57347427    -0.00200
C723        C  0.53190080  0.78456816  0.59501226    -0.03800
C724        C  0.56188586  0.81219052  0.63238652     0.03200
C725        C  0.52848190  0.89030925  0.65738944     0.10100
C726        C  0.47084028  0.83750544  0.57550567     0.36000
C727        C  0.58719866  0.80132722  0.66410220     0.39400
C728        C  0.52960236  0.92225790  0.62678362    -0.04100
C729        C  0.51822651  0.94899212  0.65168550     0.03000
C730        C  0.51468914  0.95061863  0.71149477    -0.03700
C731        C  0.51707519  0.91917312  0.74200379     0.00000
C732        C  0.52041576  0.88810168  0.71471181    -0.02500
C733        C  0.54152249  0.92695538  0.56855555     0.36700
C734        C  0.51917162  0.91925006  0.80230457     0.40300
C735        C  0.50627883  0.97016268  0.61286992     0.39500
C736        C  0.51592803  0.85360346  0.74641091     0.36400
C737        C  0.59735147  0.87912630  0.67954952     0.37100
C738        C  0.48195346  0.76363904  0.04303033     0.40300
N739        N  0.49637063  0.98559550  0.57991208    -0.37700
N740        N  0.55105583  0.93073962  0.52222324    -0.39300
N741        N  0.52214875  0.91789760  0.85000686    -0.37100
N742        N  0.51250610  0.82624202  0.77166566    -0.39500
N743        N  0.44597957  0.84498526  0.56295048    -0.39200
N744        N  0.45640666  0.74219921  0.01308554    -0.36900
N745        N  0.60782533  0.79534540  0.69315341    -0.37900
N746        N  0.62393802  0.90261180  0.70644147    -0.39600
C747        C  0.57435808  0.59343624  0.83210502    -0.04500
C748        C  0.54335873  0.59007932  0.86711927     0.09600
C749        C  0.50457825  0.55598559  0.86250494    -0.01900
C750        C  0.49668827  0.52452771  0.82426898    -0.00200
C751        C  0.52855903  0.52471958  0.79099849    -0.03800
C752        C  0.56714721  0.56255070  0.79291134     0.03200
C753        C  0.55053688  0.62299157  0.90815672     0.10100
C754        C  0.47279499  0.55245770  0.89992847     0.36000
C755        C  0.59876709  0.57449485  0.75119213     0.39400
C756        C  0.53351821  0.64795216  0.89890002    -0.04100
C757        C  0.53219576  0.67237110  0.94225966     0.03000
C758        C  0.54914398  0.67319777  0.99493314    -0.03700
C759        C  0.57013171  0.65152802  0.00190829     0.00000
C760        C  0.57055731  0.62638960  0.95878488    -0.02500
C761        C  0.51630551  0.64747887  0.84497531     0.36700
C762        C  0.57223946  0.64934005  0.54588976     0.40300
C763        C  0.51167632  0.69527733  0.93314847     0.39500
C764        C  0.59085367  0.60314598  0.96692018     0.36400
C765        C  0.61388599  0.63005978  0.83527781     0.37100
C766        C  0.45493414  0.49206964  0.82202992     0.40300
N767        N  0.49513566  0.71333492  0.92532830    -0.37700
N768        N  0.50276056  0.64708367  0.80180919    -0.39300
N769        N  0.58298458  0.64348237  0.58800964    -0.37100
N770        N  0.60747326  0.58499007  0.97308569    -0.39500
N771        N  0.44795994  0.54997519  0.93023441    -0.39200
N772        N  0.42059784  0.46868806  0.82241733    -0.36900
N773        N  0.62464404  0.58605199  0.71857231    -0.37900
N774        N  0.64536033  0.65913406  0.83790996    -0.39600
C775        C  0.91585053  0.70276432  0.44185490    -0.04500
C776        C  0.87404224  0.68478371  0.96384088     0.09600
C777        C  0.85523548  0.70796873  0.97504276    -0.01900
C778        C  0.87607936  0.75007096  0.96427433    -0.00200
C779        C  0.91812345  0.77075740  0.95098405    -0.03800
C780        C  0.93881914  0.74557117  0.44292418     0.03200
C781        C  0.85483468  0.64109643  0.98186873     0.10100
C782        C  0.81523460  0.68910520  0.00032689     0.36000
C783        C  0.98215201  0.76495778  0.43269330     0.39400
C784        C  0.86833957  0.62555750  0.51942921    -0.04100
C785        C  0.84947159  0.58425845  0.53405729     0.03000
C786        C  0.82163198  0.55893373  0.01520569    -0.03700
C787        C  0.80072696  0.56985414  0.97691541     0.00000
C788        C  0.81821186  0.61040693  0.95819242    -0.02500
C789        C  0.90199971  0.65534031  0.55248587     0.36700
C790        C  0.76094332  0.53955661  0.95759474     0.40300
C791        C  0.86482819  0.57226394  0.58091555     0.39500
C792        C  0.79881848  0.62031116  0.91402554     0.36400
C793        C  0.93464613  0.67934573  0.42485935     0.37100
C794        C  0.85326528  0.77119298  0.96270313     0.40300
N795        N  0.87733934  0.56433045  0.61973425    -0.37700
N796        N  0.92884782  0.67909707  0.57875744    -0.39300
N797        N  0.72894830  0.51561337  0.94236277    -0.37100
N798        N  0.78324382  0.62812722  0.87877562    -0.39500
N799        N  0.78340905  0.67409032  0.02076811    -0.39200
N800        N  0.83482253  0.78774998  0.95935710    -0.36900
N801        N  0.01672971  0.78012386  0.42470148    -0.37900
N802        N  0.94945391  0.66060811  0.41086573    -0.39600
C803        C  0.70375242  0.53797979  0.63264335    -0.04500
C804        C  0.66347814  0.50752605  0.62093173     0.09600
C805        C  0.65669620  0.47808386  0.58007364    -0.01900
C806        C  0.68973858  0.47877586  0.55239629    -0.00200
C807        C  0.72998713  0.50535156  0.57016086    -0.03800
C808        C  0.73683330  0.53544049  0.61011551     0.03200
C809        C  0.62831530  0.50508171  0.65339995     0.10100
C810        C  0.61586623  0.44526427  0.56902252     0.36000
C811        C  0.77685702  0.56149608  0.63267846     0.39400
C812        C  0.59787789  0.50896802  0.62644934    -0.04100
C813        C  0.56140939  0.49987021  0.65445810     0.03000
C814        C  0.55774152  0.49503480  0.71438654    -0.03700
C815        C  0.59201569  0.49548178  0.74135982     0.00000
C816        C  0.62445001  0.49685323  0.71059060    -0.02500
C817        C  0.60355094  0.52060546  0.56806609     0.36700
C818        C  0.59697699  0.49773731  0.80131842     0.40300
C819        C  0.52856473  0.49201355  0.61730636     0.39500
C820        C  0.65433179  0.48984979  0.73830014     0.36400
C821        C  0.71108998  0.57103855  0.66979038     0.37100
C822        C  0.68213776  0.45050125  0.50721112     0.40300
N823        N  0.50466671  0.48570202  0.58332052    -0.37700
N824        N  0.60813050  0.52938748  0.52151313    -0.39300
N825        N  0.60397001  0.50073029  0.84845254    -0.37100
N826        N  0.67808466  0.48423779  0.76032840    -0.39500
N827        N  0.58340437  0.41886309  0.56041545    -0.39200
N828        N  0.68471041  0.41382980  0.00775052    -0.36900
N829        N  0.80775412  0.58283323  0.65340644    -0.37900
N830        N  0.71698787  0.59747217  0.69928770    -0.39600
C831        C  0.94228746  0.45538204  0.86870171    -0.04500
C832        C  0.94457063  0.49319767  0.87298015     0.09600
C833        C  0.97439272  0.52583585  0.84249592    -0.01900
C834        C  0.00044145  0.52064852  0.80492323    -0.00200
C835        C  0.00009683  0.48231392  0.80062047    -0.03800
C836        C  0.96986899  0.45001977  0.83479500     0.03200
C837        C  0.91570341  0.49872912  0.91066471     0.10100
C838        C  0.97726051  0.56521653  0.84876201     0.36000
C839        C  0.96717006  0.41074527  0.83871475     0.39400
C840        C  0.92026248  0.49921611  0.96879034    -0.04100
C841        C  0.89192123  0.50141000  0.00458878     0.03000
C842        C  0.85789277  0.50261008  0.98303263    -0.03700
C843        C  0.85353996  0.50251119  0.92451536     0.00000
C844        C  0.88258003  0.50114602  0.88863732    -0.02500
C845        C  0.95240586  0.49389999  0.99166451     0.36700
C846        C  0.81713366  0.49916515  0.90061969     0.40300
C847        C  0.88034039  0.49209899  0.56596560     0.39500
C848        C  0.87689193  0.49934281  0.82887007     0.36400
C849        C  0.91129149  0.42154784  0.90050860     0.37100
C850        C  0.02291011  0.55480818  0.76797213     0.40300
N851        N  0.88292656  0.49128239  0.61380784    -0.37700
N852        N  0.97738730  0.48813986  0.00886842    -0.39300
N853        N  0.78821527  0.49561365  0.87963799    -0.37100
N854        N  0.87236973  0.49778741  0.78118029    -0.39500
N855        N  0.97948568  0.59649982  0.85357682    -0.39200
N856        N  0.03911352  0.58295050  0.73940650    -0.36900
N857        N  0.96325589  0.37894522  0.84573635    -0.37900
N858        N  0.88680516  0.39478794  0.92621745    -0.39600
C859        C  0.23354156  0.82268539  0.53707306    -0.04500
C860        C  0.19386752  0.80850230  0.51713299     0.09600
C861        C  0.16401945  0.76142092  0.98289869    -0.01900
C862        C  0.18377737  0.73848547  0.97941991    -0.00200
C863        C  0.23225521  0.76200071  0.50042529    -0.03800
C864        C  0.25287920  0.79970679  0.52824240     0.03200
C865        C  0.17470230  0.83442397  0.52069395     0.10100
C866        C  0.12280627  0.74465887  0.96267473     0.36000
C867        C  0.29337383  0.81411381  0.54970394     0.39400
C868        C  0.18196264  0.86263451  0.47807143    -0.04100
C869        C  0.16096444  0.88433725  0.47776599     0.03000
C870        C  0.13295219  0.87836503  0.52048970    -0.03700
C871        C  0.12592759  0.85045049  0.56349617     0.00000
C872        C  0.14684225  0.82850519  0.56360717    -0.02500
C873        C  0.21029981  0.86847176  0.43364922     0.36700
C874        C  0.09719332  0.84430520  0.60739812     0.40300
C875        C  0.16682132  0.91155594  0.43203728     0.39500
C876        C  0.15074819  0.81488387  0.10532278     0.36400
C877        C  0.25412073  0.86066436  0.56730999     0.37100
C878        C  0.16376712  0.69942796  0.95188982     0.40300
N879        N  0.17129883  0.93320026  0.39559229    -0.37700
N880        N  0.23290520  0.87310914  0.39824758    -0.39300
N881        N  0.10514712  0.87429180  0.14459961    -0.37100
N882        N  0.15157784  0.79931322  0.14616182    -0.39500
N883        N  0.08996292  0.73137242  0.94646600    -0.39200
N884        N  0.14750531  0.66850990  0.92919039    -0.36900
N885        N  0.32564649  0.82582548  0.56725104    -0.37900
N886        N  0.27038358  0.89082798  0.59181286    -0.39600
C887        C  0.11901188  0.57446973  0.70235082    -0.04500
C888        C  0.10793610  0.57898217  0.64824407     0.09600
C889        C  0.06930510  0.55009923  0.62899404    -0.01900
C890        C  0.04610941  0.51331955  0.65807517    -0.00200
C891        C  0.05327115  0.51022642  0.71636834    -0.03800
C892        C  0.09048794  0.54379620  0.73781272     0.03200
C893        C  0.13794322  0.61177541  0.60990618     0.10100
C894        C  0.05443575  0.55726102  0.57709666     0.36000
C895        C  0.09963352  0.54962054  0.79678578     0.39400
C896        C  0.14894953  0.60128533  0.55886472    -0.04100
C897        C  0.17715824  0.63174912  0.52345473     0.03000
C898        C  0.20075465  0.67220471  0.54251383    -0.03700
C899        C  0.19017398  0.68278023  0.59387151     0.00000
C900        C  0.15664967  0.65325333  0.62479386    -0.02500
C901        C  0.13282477  0.55909219  0.54355120     0.36700
C902        C  0.21508043  0.72250367  0.61802174     0.40300
C903        C  0.17947467  0.61159272  0.98131740     0.39500
C904        C  0.14181075  0.66548820  0.67245692     0.36400
C905        C  0.15996564  0.60146745  0.72210446     0.37100
C906        C  0.02157835  0.47896951  0.62267313     0.40300
N907        N  0.18351580  0.60133205  0.93764565    -0.37700
N908        N  0.11986010  0.52539218  0.53166551    -0.39300
N909        N  0.23436093  0.75353567  0.63963123    -0.37100
N910        N  0.12983488  0.67522373  0.71034554    -0.39500
N911        N  0.04312197  0.56356300  0.53574889    -0.39200
N912        N  0.00385659  0.45229676  0.59220867    -0.36900
N913        N  0.10861126  0.55705384  0.84305213    -0.37900
N914        N  0.19254468  0.62291860  0.73799773    -0.39600
C915        C  0.40210382  0.88306803  0.78465423    -0.04500
C916        C  0.39689323  0.88707629  0.84175136     0.09600
C917        C  0.42441200  0.92362750  0.86789951    -0.01900
C918        C  0.46104067  0.95171362  0.84098775    -0.00200
C919        C  0.46548545  0.95085443  0.78114766    -0.03800
C920        C  0.43255232  0.91599672  0.75390729     0.03200
C921        C  0.36540100  0.85168562  0.87575095     0.10100
C922        C  0.41637994  0.93083412  0.92475004     0.36000
C923        C  0.42817682  0.91316511  0.69384048     0.39400
C924        C  0.37800447  0.83544263  0.91913009    -0.04100
C925        C  0.34921456  0.80264601  0.95126799     0.03000
C926        C  0.30740947  0.78244738  0.93733498    -0.03700
C927        C  0.29477036  0.79796243  0.89305229     0.00000
C928        C  0.32331744  0.83353126  0.86441487    -0.02500
C929        C  0.42091818  0.85143732  0.92972900     0.36700
C930        C  0.25327921  0.77591895  0.87352109     0.40300
C931        C  0.36942406  0.78500147  0.48799119     0.39500
C932        C  0.30935902  0.85106381  0.82254153     0.36400
C933        C  0.37686795  0.84441196  0.75729891     0.37100
C934        C  0.49406890  0.97534294  0.87895670     0.40300
N935        N  0.37826277  0.76921841  0.52172207    -0.37700
N936        N  0.45508656  0.86416445  0.93836285    -0.39300
N937        N  0.22053107  0.75862013  0.85632894    -0.37100
N938        N  0.29825214  0.86496978  0.78896190    -0.39500
N939        N  0.40978797  0.93631949  0.96998783    -0.39200
N940        N  0.51915916  0.99218111  0.91191334    -0.36900
N941        N  0.42221781  0.90932126  0.64645230    -0.37900
N942        N  0.35702742  0.81356645  0.73547344    -0.39600
C943        C  0.37610918  0.16932854  0.53512536    -0.04500
C944        C  0.36444556  0.14762318  0.94502467     0.09600
C945        C  0.39300105  0.16212486  0.90123907    -0.01900
C946        C  0.43500412  0.18122938  0.91294532    -0.00200
C947        C  0.44892729  0.18827721  0.96863517    -0.03800
C948        C  0.41755575  0.19475410  0.54699098     0.03200
C949        C  0.31985397  0.12976536  0.93436897     0.10100
C950        C  0.37919959  0.15855590  0.84431181     0.36000
C951        C  0.42944110  0.20946611  0.60324648     0.39400
C952        C  0.30082972  0.15236390  0.94788996    -0.04100
C953        C  0.25809637  0.13349103  0.94972413     0.03000
C954        C  0.23365906  0.09174888  0.93619563    -0.03700
C955        C  0.25311211  0.07018718  0.91793102     0.00000
C956        C  0.29594096  0.08897804  0.91787496    -0.02500
C957        C  0.32546296  0.19482407  0.96283505     0.36700
C958        C  0.22925465  0.02843483  0.89966456     0.40300
C959        C  0.23989648  0.15679327  0.96971772     0.39500
C960        C  0.31547862  0.06582053  0.90335290     0.36400
C961        C  0.34661537  0.15408169  0.58007783     0.37100
C962        C  0.46383348  0.19327747  0.86754336     0.40300
N963        N  0.22570641  0.17560123  0.98589312    -0.37700
N964        N  0.34494403  0.22863022  0.97495571    -0.39300
N965        N  0.21030787  0.99511107  0.88510450    -0.37100
N966        N  0.33116336  0.04741793  0.89187072    -0.39500
N967        N  0.36826042  0.15594904  0.79885788    -0.39200
N968        N  0.48652938  0.20243081  0.83090012    -0.36900
N969        N  0.43759932  0.22147729  0.64830577    -0.37900
N970        N  0.32307310  0.14166072  0.61585097    -0.39600
C971        C  0.52826511  0.07483480  0.64873675    -0.04500
C972        C  0.49144546  0.07469208  0.64678720     0.09600
C973        C  0.45713533  0.04291707  0.67210834    -0.01900
C974        C  0.45981983  0.01258668  0.70320408    -0.00200
C975        C  0.49736758  0.01126750  0.70583660    -0.03800
C976        C  0.53132177  0.04361571  0.67618572     0.03200
C977        C  0.49020146  0.11055433  0.62258321     0.10100
C978        C  0.41896617  0.04294447  0.66839830     0.36000
C979        C  0.57026266  0.04553821  0.67082219     0.39400
C980        C  0.48717685  0.11421538  0.56464628    -0.04100
C981        C  0.49195875  0.15059228  0.54165839     0.03000
C982        C  0.49922042  0.18356862  0.57658642    -0.03700
C983        C  0.50165855  0.17937334  0.63487710     0.00000
C984        C  0.49667859  0.14299841  0.65758272    -0.02500
C985        C  0.48133472  0.08119843  0.52846839     0.36700
C986        C  0.51158203  0.21326532  0.67180255     0.40300
C987        C  0.48646691  0.12674078  0.95387172     0.39500
C988        C  0.50040526  0.13966626  0.71711061     0.36400
C989        C  0.56379821  0.10824387  0.62268472     0.37100
C990        C  0.42414381  0.98724878  0.73651540     0.40300
N991        N  0.48149834  0.12433069  0.90626602    -0.37700
N992        N  0.47687726  0.05494386  0.49958100    -0.39300
N993        N  0.51986779  0.24029093  0.70141089    -0.37100
N994        N  0.50353028  0.13707190  0.76454689    -0.39500
N995        N  0.38864137  0.04302360  0.66545484    -0.39200
N996        N  0.39500262  0.96876249  0.76281647    -0.36900
N997        N  0.60202472  0.04937798  0.66288697    -0.37900
N998        N  0.59197657  0.13493982  0.60203938    -0.39600
C999        C  0.47054558  0.31378817  0.90418525    -0.04500
C1000       C  0.50029163  0.33755157  0.86412332     0.09600
C1001       C  0.53232906  0.32981144  0.85346435    -0.01900
C1002       C  0.53427817  0.29858535  0.88198212    -0.00200
C1003       C  0.50731172  0.27802377  0.92666467    -0.03800
C1004       C  0.47573276  0.28642992  0.93811214     0.03200
C1005       C  0.50049259  0.37337976  0.83713779     0.10100
C1006       C  0.56476177  0.35552665  0.81539228     0.36000
C1007       C  0.45163644  0.27126361  0.98825728     0.39400
C1008       C  0.50765778  0.40710477  0.86933385    -0.04100
C1009       C  0.51119492  0.44255472  0.84449607     0.03000
C1010       C  0.50978386  0.44618459  0.78458685    -0.03700
C1011       C  0.50351249  0.41098314  0.75306512     0.00000
C1012       C  0.49727107  0.37508120  0.77932256    -0.02500
C1013       C  0.51399260  0.40607233  0.92894830     0.36700
C1014       C  0.50070821  0.40941634  0.69276628     0.40300
C1015       C  0.52037157  0.47504928  0.88347487     0.39500
C1016       C  0.48754071  0.33925829  0.74639268     0.36400
C1017       C  0.43544483  0.31877008  0.91199164     0.37100
C1018       C  0.56499658  0.28843309  0.86596897     0.40300
N1019       N  0.52841474  0.49909850  0.91802930    -0.37700
N1020       N  0.51917916  0.40517270  0.97619725    -0.39300
N1021       N  0.49738658  0.40556933  0.64498506    -0.37100
N1022       N  0.48001549  0.31082660  0.72021167    -0.39500
N1023       N  0.59068251  0.37620810  0.78526699    -0.39200
N1024       N  0.58941213  0.28027979  0.85315480    -0.36900
N1025       N  0.42434259  0.28239679  0.54524246    -0.37900
N1026       N  0.40735437  0.32262179  0.91799810    -0.39600
C1027       C  0.12591564  0.24775036  0.50102229    -0.04500
C1028       C  0.16297490  0.27062594  0.52930687     0.09600
C1029       C  0.17574875  0.25169875  0.56825339    -0.01900
C1030       C  0.15311910  0.20934761  0.57568437    -0.00200
C1031       C  0.11700647  0.18610797  0.54535794    -0.03800
C1032       C  0.10284266  0.20561922  0.50918312     0.03200
C1033       C  0.19143058  0.31297741  0.51119784     0.10100
C1034       C  0.22560288  0.27272642  0.07885309     0.36000
C1035       C  0.06632166  0.18199499  0.47650865     0.39400
C1036       C  0.18666356  0.34547726  0.52983425    -0.04100
C1037       C  0.21226459  0.38491238  0.50904341     0.03000
C1038       C  0.24307675  0.39190422  0.47032596    -0.03700
C1039       C  0.25876425  0.36482748  0.93496555     0.00000
C1040       C  0.23491379  0.32577337  0.95688310    -0.02500
C1041       C  0.15501498  0.33807353  0.56970930     0.36700
C1042       C  0.28184121  0.37035592  0.88438911     0.40300
C1043       C  0.20535268  0.41751655  0.52546787     0.39500
C1044       C  0.23691564  0.29193498  0.93233115     0.36400
C1045       C  0.11285195  0.26725932  0.46084146     0.37100
C1046       C  0.17254725  0.18675794  0.08719164     0.40300
N1047       N  0.19840476  0.44264419  0.53877086    -0.37700
N1048       N  0.12970512  0.33210416  0.60147928    -0.39300
N1049       N  0.29866224  0.37431478  0.84264855    -0.37100
N1050       N  0.23839351  0.26491381  0.91276659    -0.39500
N1051       N  0.25605527  0.28831187  0.10271431    -0.39200
N1052       N  0.18078982  0.16747513  0.11561684    -0.36900
N1053       N  0.03732994  0.16308129  0.45034560    -0.37900
N1054       N  0.10247852  0.28277960  0.42872135    -0.39600
C1055       C  0.41260419  0.43396566  0.67116446    -0.08000
C1056       C  0.41669760  0.46551324  0.63714275     0.09600
C1057       C  0.44903264  0.50489805  0.64663181    -0.01900
C1058       C  0.48026072  0.51193351  0.68485197    -0.00200
C1059       C  0.48006403  0.47902612  0.71492962    -0.03800
C1060       C  0.44184368  0.44098955  0.71249072     0.03200
C1061       C  0.38617140  0.45759855  0.59219837     0.10100
C1062       C  0.45166599  0.53813000  0.61374408     0.36000
C1063       C  0.42815975  0.40991375  0.75515664     0.39400
C1064       C  0.35656858  0.46915528  0.59971065    -0.04100
C1065       C  0.33092042  0.46602806  0.55532545     0.03000
C1066       C  0.33381364  0.45021290  0.50326480    -0.03700
C1067       C  0.36280906  0.43760474  0.49639972     0.00000
C1068       C  0.38808927  0.44032821  0.54107035    -0.02500
C1069       C  0.35305566  0.48495706  0.65312735     0.36700
C1070       C  0.36854294  0.42373023  0.44281576     0.40300
C1071       C  0.30450870  0.48295897  0.56204715     0.39500
C1072       C  0.41618485  0.42533817  0.53420456     0.36400
C1073       C  0.37694230  0.39405411  0.66466320     0.37100
C1074       C  0.51357976  0.55331003  0.68836541     0.40300
N1075       N  0.28446393  0.49758162  0.56833541    -0.37700
N1076       N  0.35031408  0.49747513  0.69582882    -0.39300
N1077       N  0.37497511  0.39995292  0.89698999    -0.37100
N1078       N  0.43792734  0.41259418  0.52845725    -0.39500
N1079       N  0.45384231  0.56460590  0.58758245    -0.39200
N1080       N  0.53863965  0.58708367  0.68899557    -0.36900
N1081       N  0.41568717  0.38466921  0.78858177    -0.37900
N1082       N  0.34857455  0.36232460  0.65927873    -0.39600
C1083       C  0.09744614  0.45490258  0.86114923    -0.04500
C1084       C  0.12447986  0.45203861  0.82414318     0.09600
C1085       C  0.11925227  0.45413152  0.76693565    -0.01900
C1086       C  0.08636972  0.45763367  0.74622324    -0.00200
C1087       C  0.05875524  0.46263284  0.78278830    -0.03800
C1088       C  0.06679132  0.46275675  0.84167968     0.03200
C1089       C  0.16103755  0.45073027  0.84545515     0.10100
C1090       C  0.14851657  0.45306351  0.72886129     0.36000
C1091       C  0.04866865  0.47571357  0.88423623     0.39400
C1092       C  0.16261245  0.41452390  0.84420998    -0.04100
C1093       C  0.19891247  0.41473934  0.85817969     0.03000
C1094       C  0.23293958  0.45058445  0.87852121    -0.03700
C1095       C  0.23005012  0.48624583  0.88278592     0.00000
C1096       C  0.19530817  0.48671839  0.86349076    -0.02500
C1097       C  0.12719020  0.37727944  0.82634064     0.36700
C1098       C  0.26313949  0.52301912  0.90636688     0.40300
C1099       C  0.20138813  0.37876394  0.84666934     0.39500
C1100       C  0.19592131  0.52489281  0.85791258     0.36400
C1101       C  0.10253659  0.45128790  0.92037928     0.37100
C1102       C  0.08087772  0.45373257  0.68635293     0.40300
N1103       N  0.20128532  0.34917485  0.83534622    -0.37700
N1104       N  0.09895022  0.34750754  0.81220953    -0.39300
N1105       N  0.28945577  0.55237699  0.92516852    -0.37100
N1106       N  0.19659738  0.55530269  0.85156694    -0.39500
N1107       N  0.17194086  0.45241340  0.69865652    -0.39200
N1108       N  0.07833763  0.44931763  0.63861894    -0.36900
N1109       N  0.03623036  0.48683568  0.92005260    -0.37900
N1110       N  0.10660298  0.44817302  0.96743783    -0.39600
C1111       C  0.84806322  0.08351819  0.95898449    -0.04500
C1112       C  0.86322300  0.12129522  0.98576524     0.09600
C1113       C  0.90560284  0.14105973  0.51953967    -0.01900
C1114       C  0.92590295  0.11854390  0.52366829    -0.00200
C1115       C  0.91094522  0.08245078  0.98026944    -0.03800
C1116       C  0.87213521  0.06487541  0.95452909     0.03200
C1117       C  0.83761850  0.14117993  0.99082058     0.10100
C1118       C  0.92497255  0.18256792  0.53959775     0.36000
C1119       C  0.85692655  0.02801747  0.92194967     0.39400
C1120       C  0.82008814  0.14182262  0.04239071    -0.04100
C1121       C  0.79877827  0.16323214  0.04832942     0.03000
C1122       C  0.79361409  0.18325390  0.00234771    -0.03700
C1123       C  0.81730803  0.18531675  0.44925399     0.00000
C1124       C  0.83186277  0.16043575  0.94456064    -0.02500
C1125       C  0.82346945  0.11975265  0.08917693     0.36700
C1126       C  0.81408583  0.20397362  0.39867622     0.40300
C1127       C  0.78130950  0.16368848  0.10168074     0.39500
C1128       C  0.85432673  0.15787478  0.39605813     0.36400
C1129       C  0.80706652  0.06327551  0.93710763     0.37100
C1130       C  0.96407544  0.13663647  0.55359870     0.40300
N1131       N  0.76726455  0.16320030  0.14462546    -0.37700
N1132       N  0.82602161  0.10189605  0.12630454    -0.39300
N1133       N  0.81268056  0.21893007  0.35757189    -0.37100
N1134       N  0.86723929  0.15358409  0.35457313    -0.39500
N1135       N  0.94023198  0.21564595  0.55550771    -0.39200
N1136       N  0.99426789  0.15140023  0.57809114    -0.36900
N1137       N  0.84483496  0.99876143  0.89565972    -0.37900
N1138       N  0.77428646  0.04705172  0.91994984    -0.39600
C1139       C  0.92632291  0.40270804  0.66824759    -0.04500
C1140       C  0.92909953  0.36805801  0.65709058     0.09600
C1141       C  0.96055557  0.36433000  0.68077786    -0.01900
C1142       C  0.98911720  0.39478957  0.71656589    -0.00200
C1143       C  0.99107525  0.43373442  0.72231902    -0.03800
C1144       C  0.95695123  0.43548567  0.69884435     0.03200
C1145       C  0.89635507  0.33371997  0.62437199     0.10100
C1146       C  0.96215295  0.32753139  0.67010123     0.36000
C1147       C  0.95366378  0.47181843  0.70105754     0.39400
C1148       C  0.90160448  0.32878086  0.56724382    -0.04100
C1149       C  0.86914707  0.29848777  0.53589961     0.03000
C1150       C  0.83069113  0.27441161  0.56092057    -0.03700
C1151       C  0.82557915  0.28000459  0.61799025     0.00000
C1152       C  0.85873497  0.30794191  0.65004465    -0.02500
C1153       C  0.93958740  0.35636797  0.53990027     0.36700
C1154       C  0.78539110  0.25961093  0.64289001     0.40300
C1155       C  0.86580317  0.28181206  0.99142762     0.39500
C1156       C  0.85367320  0.31149475  0.70925815     0.36400
C1157       C  0.89164422  0.40465491  0.64677434     0.37100
C1158       C  0.01188908  0.38176420  0.75066178     0.40300
N1159       N  0.87212887  0.28072537  0.94456357    -0.37700
N1160       N  0.96955961  0.37830327  0.51730343    -0.39300
N1161       N  0.75324212  0.24374668  0.66239738    -0.37100
N1162       N  0.84964154  0.31419047  0.75650616    -0.39500
N1163       N  0.96334368  0.29826506  0.66126905    -0.39200
N1164       N  0.02859828  0.36942357  0.77740362    -0.36900
N1165       N  0.94924625  0.49974751  0.70031163    -0.37900
N1166       N  0.86349320  0.40521180  0.62984211    -0.39600
C1167       C  0.61378029  0.04177369  0.81997543    -0.04500
C1168       C  0.61009410  0.07138400  0.84955332     0.09600
C1169       C  0.57445905  0.07342270  0.84470419    -0.01900
C1170       C  0.54146941  0.04474133  0.81232419    -0.00200
C1171       C  0.54311678  0.01241968  0.78272588    -0.03800
C1172       C  0.58215373  0.01400428  0.78489141     0.03200
C1173       C  0.64518788  0.10239186  0.88320632     0.10100
C1174       C  0.57159982  0.10515541  0.87456620     0.36000
C1175       C  0.59433314  0.99193157  0.74764278     0.39400
C1176       C  0.66963954  0.14183336  0.86205860    -0.04100
C1177       C  0.70101305  0.17183550  0.89470794     0.03000
C1178       C  0.70925440  0.16248232  0.94843395    -0.03700
C1179       C  0.68513174  0.12263484  0.96910816     0.00000
C1180       C  0.65340246  0.09268068  0.93642482    -0.02500
C1181       C  0.66132477  0.15194146  0.80733146     0.36700
C1182       C  0.69889300  0.12326111  0.52330546     0.40300
C1183       C  0.72306336  0.21315662  0.87416618     0.39500
C1184       C  0.62782411  0.05224836  0.95853479     0.36400
C1185       C  0.65191679  0.04157000  0.82354985     0.37100
C1186       C  0.50491807  0.04780533  0.81439381     0.40300
N1187       N  0.74045895  0.24612006  0.85783346    -0.37700
N1188       N  0.65438466  0.15996154  0.76387693    -0.39300
N1189       N  0.70085693  0.11646530  0.56968649    -0.37100
N1190       N  0.60738742  0.01999305  0.97612028    -0.39500
N1191       N  0.56977341  0.13067988  0.89824398    -0.39200
N1192       N  0.47669819  0.05159493  0.81906700    -0.36900
N1193       N  0.60638273  0.97609794  0.71836465    -0.37900
N1194       N  0.68226714  0.04153356  0.82637443    -0.39600
loop_ 
_geom_bond_atom_site_label_1 
_geom_bond_atom_site_label_2 
_geom_bond_distance 
_geom_bond_site_symmetry_2 
_ccdc_geom_bond_type 
N1            C5   1.369       .  A
N1          C599   1.367   1_554  A
N1         C1122   1.454       .  S
C2          N598   1.365       .  A
C2            C3   1.382       .  A
C2          C581   1.490       .  S
C3          C601   1.367       .  A
C3            H6   1.082       .  S
C4            C5   1.382       .  A
C4          C600   1.367       .  A
C4            H7   1.082       .  S
C5          C553   1.499       .  S
N8            C9   1.359       .  A
N8          C609   1.361       .  A
N8          C441   1.438       .  S
C9           C10   1.379       .  A
C9          C469   1.497       .  S
C10         C608   1.378       .  A
C10          H13   1.080       .  S
C11          C12   1.385       .  A
C11         C607   1.377       .  A
C11          H14   1.082       .  S
C12         N605   1.357       .  A
C12         C497   1.494       .  S
N15          C19   1.367   1_556  A
N15         C613   1.368       .  A
N15         C947   1.454       .  S
C16         N612   1.367       .  A
C16          C17   1.384       .  A
C16         C406   1.503       .  S
C17         C615   1.371       .  A
C17          H20   1.083       .  S
C18          C19   1.381       .  A
C18         C614   1.365   1_554  A
C18          H21   1.082       .  S
C19         C385   1.495       .  S
N22          C23   1.371   1_556  A
N22         C623   1.370       .  A
N22         C266   1.447       .  S
C23          C24   1.385       .  A
C23         C301   1.513       .  S
C24         C622   1.367   1_554  A
C24          H27   1.082       .  S
C25          C26   1.383       .  A
C25         C621   1.363       .  A
C25          H28   1.083       .  S
C26         N619   1.369       .  A
C26         C329   1.506       .  S
N29          C33   1.368       .  A
N29         C627   1.368       .  A
N29         C786   1.448       .  S
C30         N626   1.365       .  A
C30          C31   1.380       .  A
C30         C245   1.493       .  S
C31         C629   1.369       .  A
C31          H34   1.082       .  S
C32          C33   1.384       .  A
C32         C628   1.370       .  A
C32          H35   1.082       .  S
C33         C210   1.506       .  S
N36          C37   1.361       .  A
N36         C637   1.358       .  A
N36         C105   1.433       .  S
C37          C38   1.385       .  A
C37         C126   1.507       .  S
C38         C636   1.379       .  A
C38          H41   1.082       .  S
C39          C40   1.380       .  A
C39         C635   1.378       .  A
C39          H42   1.082       .  S
C40         N633   1.361       .  A
C40         C161   1.501       .  S
O43         Mg45   2.156   1_545  S
O43        Mg648   2.160   1_554  S
O43          C78   1.236       .  S
C44          H83   1.081       .  S
C44          O57   1.235       .  S
C44          O81   1.271   1_455  A
Mg45        O671   2.166   1_554  S
Mg45         O85   2.279       .  S
Mg45         O56   2.286       .  S
Mg45        O686   2.311   1_564  S
O46         Mg71   2.137   1_655  S
O46        Mg685   2.145   1_544  S
O46          C67   1.236   1_545  S
O47          C78   1.271       .  A
O47         Mg71   2.307       .  S
C48         C182   1.512       .  S
C48          O50   1.272       .  A
C48          O62   1.279       .  A
O49          C77   1.269   1_545  A
O49         Mg51   2.294       .  S
O50         Mg82   2.266   1_655  S
Mg51         O57   2.163       .  S
Mg51        O640   2.151       .  S
Mg51         O65   2.285       .  S
Mg51        O650   2.308       .  S
C52          C98   1.501       .  S
C52          O90   1.268       .  A
C52          O58   1.273       .  A
O53          C60   1.276   1_556  A
O53        Mg648   2.310       .  S
H54          C67   1.082   1_545  S
C55          H80   1.082       .  S
C55          O69   1.236       .  S
C55          O70   1.270       .  A
O56          C79   1.267       .  A
O57        Mg668   2.152       .  S
O58        Mg685   2.298   1_554  S
C59         C518   1.518       .  S
C59          O72   1.273       .  A
C59          O64   1.276       .  A
C60         C434   1.478       .  S
C60          O87   1.270       .  A
Mg61         O68   2.116   1_655  S
Mg61        O666   2.157   1_554  S
Mg61         O63   2.301       .  S
Mg61         O90   2.227       .  S
Mg61        O659   2.325   1_554  S
O62        Mg658   2.329       .  S
O63          C67   1.271       .  A
O64        Mg668   2.325   1_655  S
O65          C84   1.274       .  A
O66          C86   1.274   1_556  A
O66        Mg679   2.289       .  S
O68        Mg679   2.146   1_554  S
O68          C79   1.234       .  S
O69         Mg88   2.153       .  S
O69        Mg658   2.162       .  S
O70         Mg82   2.298   1_655  S
Mg71        O654   2.153   1_554  S
Mg71         O87   2.241       .  S
Mg71        O661   2.334   1_454  S
O72         Mg88   2.283   1_545  S
H73          C78   1.081       .  S
O74         Mg82   2.140       .  S
O74        Mg642   2.150       .  S
O74          C77   1.235       .  S
H75          C77   1.082       .  S
H76          C79   1.082       .  S
O81         Mg88   2.308   1_545  S
Mg82        O665   2.152       .  S
Mg82        O663   2.315       .  S
C84         C357   1.518       .  S
C84          O89   1.274       .  A
O85          C86   1.275       .  A
C86         C273   1.475       .  S
Mg88        O643   2.150       .  S
Mg88        O655   2.302       .  S
O89        Mg642   2.310   1_545  S
C91         C238   1.613   1_455  S
C91         C294   1.617       .  S
C91         C490   1.604       .  S
C91         C546   1.619   1_455  S
C92         C133   1.604       .  S
C92         C322   1.614       .  S
C92         C378   1.611   1_565  S
C92         C574   1.609   1_565  S
C93         C154   1.618       .  S
C93         C217   1.619       .  S
C93         C413   1.617       .  S
C93         C462   1.615       .  S
C94          C95   1.411       .  A
C94          C99   1.412       .  A
C94         C112   1.452       .  S
C95         C693   1.409       .  A
C95         C100   1.493       .  S
C96          C97   1.407       .  A
C96         C692   1.409       .  A
C96         C101   1.453       .  S
C97         C695   1.422       .  A
C97         C113   1.450       .  S
C98          C99   1.424       .  A
C98         C694   1.421       .  A
C99         C102   1.452       .  S
C100        C103   1.416       .  A
C100        C704   1.413       .  A
C101        N118   1.157       .  T
C102        N120   1.158       .  T
C103        C104   1.410       .  A
C103        C108   1.450   1_554  S
C104        C105   1.404       .  A
C104        C110   1.447   1_554  S
C105        C703   1.408       .  A
C106        C107   1.405       .  A
C106        C702   1.411       .  A
C106        C109   1.452       .  S
C107        C697   1.411       .  A
C107        C111   1.452       .  S
C108        N115   1.157       .  T
C109        N116   1.158       .  T
C110        N114   1.157       .  T
C111        N117   1.157       .  T
C112        N121   1.157       .  T
C113        N119   1.157       .  T
C122        C123   1.407       .  A
C122        C127   1.411       .  A
C122        C140   1.454       .  S
C123        C124   1.409       .  A
C123        C128   1.503       .  S
C124        C125   1.412       .  A
C124        C129   1.451       .  S
C125        C126   1.423       .  A
C125        C738   1.451       .  S
C126        C127   1.422       .  A
C127        C130   1.443       .  S
C128        C131   1.401       .  A
C128        C135   1.403       .  A
C129        N146   1.157       .  T
C130        N148   1.157       .  T
C131        C132   1.416       .  A
C131        C136   1.455       .  S
C132        C133   1.451       .  A
C132        C138   1.450       .  S
C133        C134   1.447       .  A
C134        C135   1.409       .  A
C134        C137   1.452       .  S
C135        C139   1.455       .  S
C136        N143   1.157       .  T
C137        N144   1.157       .  T
C138        N142   1.158       .  T
C139        N145   1.157       .  T
C140        N149   1.157       .  T
C141        C722   1.451       .  S
C141        N147   1.157       .  T
C150        C151   1.400       .  A
C150        C155   1.424       .  A
C150        C168   1.454       .  S
C151        C152   1.401       .  A
C151        C156   1.512       .  S
C152        C153   1.419       .  A
C152        C157   1.456       .  S
C153        C154   1.450       .  A
C153        C169   1.449       .  S
C154        C155   1.454       .  A
C155        C158   1.452       .  S
C156        C159   1.411       .  A
C156        C163   1.411       .  A
C157        N174   1.157       .  T
C158        N176   1.158       .  T
C159        C160   1.415       .  A
C159        C164   1.450       .  S
C160        C161   1.417       .  A
C160        C166   1.449       .  S
C161        C162   1.416       .  A
C162        C163   1.415       .  A
C162        C762   1.446       .  S
C163        C167   1.449       .  S
C164        N171   1.157       .  T
C165        C759   1.445       .  S
C165        N172   1.157       .  T
C166        N170   1.157       .  T
C167        N173   1.157       .  T
C168        N177   1.157       .  T
C169        N175   1.157       .  T
C178        C183   1.416       .  A
C178        C776   1.413       .  A
C178        C196   1.452       .  S
C179        C180   1.412       .  A
C179        C775   1.411       .  A
C179        C184   1.507       .  S
C180        C181   1.412       .  A
C180        C185   1.450       .  S
C181        C182   1.419       .  A
C181        C197   1.449       .  S
C182        C780   1.425       .  A
C183        C779   1.424       .  A
C183        C186   1.451       .  S
C184        C191   1.414       .  A
C184        C784   1.414       .  A
C185        N202   1.157       .  T
C186        N204   1.158   1_655  T
C187        C188   1.409       .  A
C187        C781   1.414   1_554  A
C187        C192   1.452       .  S
C188        C786   1.411       .  A
C188        C194   1.448       .  S
C189        N626   1.448       .  S
C189        C190   1.412       .  A
C189        C785   1.411       .  A
C190        C191   1.416       .  A
C190        C193   1.446       .  S
C191        C195   1.450       .  S
C192        N199   1.157       .  T
C193        N200   1.157       .  T
C194        N198   1.157       .  T
C195        N201   1.157       .  T
C196        N205   1.157       .  T
C197        N203   1.157       .  T
C206        C207   1.414       .  A
C206        C211   1.419       .  A
C206        C224   1.451       .  S
C207        C208   1.413       .  A
C207        C212   1.515       .  S
C208        C209   1.412       .  A
C208        C213   1.452       .  S
C209        C210   1.420       .  A
C209        C225   1.453       .  S
C210        C211   1.417       .  A
C211        C214   1.446       .  S
C212        C215   1.402       .  A
C212        C219   1.403       .  A
C213        N230   1.157       .  T
C214        N232   1.157       .  T
C215        C216   1.422       .  A
C215        C220   1.457       .  S
C216        C217   1.454       .  A
C216        C222   1.446       .  S
C217        C218   1.450       .  A
C218        C219   1.418       .  A
C218        C221   1.452       .  S
C219        C223   1.454       .  S
C220        N227   1.157       .  T
C221        N228   1.158       .  T
C222        N226   1.158       .  T
C223        N229   1.157       .  T
C224        N233   1.157       .  T
C225        N828   1.157       .  T
N231        C822   1.157       .  T
C234        C235   1.399       .  A
C234        C239   1.416       .  A
C234        C252   1.456       .  S
C235        C236   1.398       .  A
C235        C240   1.505       .  S
C236        C237   1.420       .  A
C236        C241   1.456       .  S
C237        C238   1.456       .  A
C237        C253   1.451   1_655  S
C238        C239   1.450       .  A
C239        C242   1.452       .  S
C240        C243   1.408       .  A
C240        C247   1.411       .  A
C241        N258   1.157       .  T
C242        N260   1.157       .  T
C243        C244   1.411       .  A
C243        C248   1.447       .  S
C244        C245   1.416       .  A
C244        C847   1.450       .  S
C245        C246   1.415       .  A
C246        C247   1.414       .  A
C246        C249   1.448       .  S
C247        C251   1.451       .  S
C248        N255   1.155       .  T
C249        N256   1.157       .  T
C250        C841   1.447       .  S
C250        N254   1.156       .  T
C251        N257   1.157       .  T
C252        N261   1.157       .  T
C253        N259   1.158       .  T
C262        C263   1.409       .  A
C262        C267   1.409       .  A
C262        C280   1.451       .  S
C263        C861   1.411   1_554  A
C263        C268   1.495       .  S
C264        C265   1.408       .  A
C264        C860   1.409       .  A
C264        C269   1.452       .  S
C265        C863   1.414       .  A
C265        C281   1.448       .  S
C266        C267   1.414   1_556  A
C266        C862   1.414       .  A
C267        C270   1.449       .  S
C268        C271   1.411   1_554  A
C268        C275   1.414       .  A
C269        N286   1.157       .  T
C270        N288   1.157       .  T
C271        C272   1.407       .  A
C271        C276   1.451       .  S
C272        C273   1.411   1_556  A
C272        C278   1.452       .  S
C273        C274   1.410       .  A
C274        C275   1.412       .  A
C274        C277   1.450       .  S
C275        C876   1.450       .  S
C276        N283   1.157       .  T
C277        N881   1.157       .  T
C278        N282   1.157       .  T
C279        C872   1.450       .  S
C279        N285   1.157       .  T
C280        N289   1.157       .  T
C281        N287   1.157       .  T
N284        C874   1.157       .  T
C290        C291   1.404       .  A
C290        C295   1.419       .  A
C290        C308   1.452       .  S
C291        C292   1.403       .  A
C291        C296   1.519       .  S
C292        C293   1.418       .  A
C292        C297   1.452       .  S
C293        C294   1.447       .  A
C293        C309   1.445       .  S
C294        C295   1.452       .  A
C295        C298   1.452       .  S
C296        C299   1.414       .  A
C296        C303   1.416       .  A
C297        N314   1.157       .  T
C298        N316   1.157       .  T
C299        C300   1.409       .  A
C299        C304   1.453       .  S
C300        C301   1.419       .  A
C300        C903   1.450   1_554  S
C301        C302   1.419       .  A
C302        C303   1.422       .  A
C302        C305   1.446       .  S
C303        C307   1.450       .  S
C304        N311   1.157       .  T
C305        N312   1.157       .  T
C306        C897   1.451       .  S
C306        N310   1.157       .  T
C307        N313   1.157       .  T
C308        N317   1.157       .  T
C309        N315   1.158   1_455  T
C318        C319   1.403       .  A
C318        C323   1.417       .  A
C318        C336   1.454       .  S
C319        C320   1.401       .  A
C319        C324   1.509       .  S
C320        C321   1.417       .  A
C320        C325   1.456       .  S
C321        C322   1.452       .  A
C321        C337   1.449       .  S
C322        C323   1.450       .  A
C323        C326   1.453       .  S
C324        C327   1.411       .  A
C324        C331   1.414       .  A
C325        N342   1.157       .  T
C326        N344   1.157       .  T
C327        C328   1.407       .  A
C327        C332   1.452       .  S
C328        C329   1.421       .  A
C328        C931   1.453       .  S
C329        C330   1.418       .  A
C330        C331   1.419       .  A
C330        C333   1.447       .  S
C331        C335   1.450       .  S
C332        N339   1.157       .  T
C333        N340   1.157       .  T
C334        C925   1.453       .  S
C334        N338   1.157   1_556  T
C335        N341   1.157       .  T
C336        N345   1.157       .  T
C337        N343   1.158       .  T
C346        C351   1.409       .  A
C346        C944   1.410   1_554  A
C346        C364   1.453       .  S
C347        C348   1.411       .  A
C347        C943   1.409       .  A
C347        C352   1.499       .  S
C348        C349   1.414       .  A
C348        C353   1.450       .  S
C349        C350   1.415       .  A
C349        C365   1.447       .  S
C350        N612   1.449       .  S
C350        C948   1.414       .  A
C351        C947   1.416   1_554  A
C351        C354   1.446       .  S
C352        C355   1.407       .  A
C352        C359   1.405       .  A
C353        N370   1.157       .  T
C354        N372   1.157       .  T
C355        C356   1.414       .  A
C355        C360   1.452       .  S
C356        C357   1.426       .  A
C356        C362   1.451       .  S
C357        C358   1.430       .  A
C358        C359   1.414       .  A
C358        C361   1.450       .  S
C359        C363   1.453       .  S
C360        N367   1.157       .  T
C361        N368   1.157   1_545  T
C362        N366   1.157       .  T
C363        N369   1.157       .  T
C364        N373   1.157       .  T
C365        N371   1.157       .  T
C374        C375   1.397       .  A
C374        C379   1.415       .  A
C374        C392   1.456       .  S
C375        C376   1.397       .  A
C375        C380   1.499       .  S
C376        C377   1.419       .  A
C376        C381   1.456       .  S
C377        C378   1.454       .  A
C377        C393   1.450   1_545  S
C378        C379   1.451       .  A
C379        C382   1.452       .  S
C380        C383   1.411       .  A
C380        C387   1.408       .  A
C381        N398   1.157       .  T
C382        N400   1.157       .  T
C383        C384   1.416       .  A
C383        C388   1.449       .  S
C384        C385   1.415       .  A
C384        C987   1.448   1_554  S
C385        C386   1.419       .  A
C386        C387   1.407       .  A
C386        C389   1.453       .  S
C387        C391   1.453       .  S
C388        N395   1.157   1_554  T
C389        N396   1.157       .  T
C390        C981   1.448       .  S
C390        N394   1.157       .  T
C391        N397   1.157       .  T
C392        N401   1.157       .  T
C393        N399   1.158       .  T
C402        C403   1.417       .  A
C402        C407   1.418       .  A
C402        C420   1.451       .  S
C403        C404   1.412       .  A
C403        C408   1.515       .  S
C404        C405   1.411       .  A
C404        C409   1.452       .  S
C405        C406   1.419       .  A
C405        C421   1.453       .  S
C406        C407   1.415       .  A
C407        C410   1.448       .  S
C408        C411   1.402       .  A
C408        C415   1.403       .  A
C409        N426   1.157       .  T
C410       N1025   1.157       .  T
C411        C412   1.421       .  A
C411        C416   1.458       .  S
C412        C413   1.452       .  A
C412        C418   1.446       .  S
C413        C414   1.451       .  A
C414        C415   1.420       .  A
C414        C417   1.453       .  S
C415        C419   1.454       .  S
C416        N423   1.157       .  T
C417        N424   1.157       .  T
C418        N422   1.157       .  T
C419        N425   1.157       .  T
C420        N429   1.157       .  T
C421        N427   1.157       .  T
N428       C1007   1.157   1_554  T
C430        C431   1.410   1_556  A
C430        C435   1.406       .  A
C430        C448   1.452       .  S
C431        C432   1.411       .  A
C431        C436   1.490       .  S
C432        C433   1.411       .  A
C432       C1034   1.450       .  S
C433        C434   1.412       .  A
C433       C1046   1.450       .  S
C434        C435   1.414   1_554  A
C435        C438   1.452       .  S
C436        C439   1.412       .  A
C436       C1040   1.410   1_554  A
C437       C1029   1.450       .  S
C437        N454   1.157       .  T
C438        N456   1.157       .  T
C439        C440   1.412       .  A
C439        C444   1.449       .  S
C440        C441   1.408   1_554  A
C440        C446   1.446       .  S
C441       C1039   1.411       .  A
C442        C443   1.404       .  A
C442       C1038   1.411       .  A
C442        C445   1.448       .  S
C443       C1033   1.409       .  A
C443        C447   1.452       .  S
C444        N451   1.157       .  T
C445        N452   1.157       .  T
C446        N450   1.157       .  T
C447        N453   1.157       .  T
C448        N457   1.157       .  T
C449       C1030   1.450       .  S
C449        N455   1.157       .  T
C458        C459   1.400       .  A
C458        C463   1.419       .  A
C458        C476   1.455       .  S
C459        C460   1.401       .  A
C459        C464   1.506       .  S
C460        C461   1.417       .  A
C460        C465   1.456       .  S
C461        C462   1.448       .  A
C461        C477   1.448       .  S
C462        C463   1.454       .  A
C463        C466   1.452       .  S
C464        C467   1.411       .  A
C464        C471   1.411       .  A
C465        N482   1.157       .  T
C466        N484   1.159       .  T
C467        C468   1.412       .  A
C467        C472   1.451       .  S
C468        C469   1.415   1_554  A
C468        C474   1.449       .  S
C469        C470   1.416       .  A
C470        C471   1.413   1_556  A
C470        C473   1.446       .  S
C471        C475   1.451       .  S
C472        N479   1.157       .  T
C473       N1077   1.157       .  T
C474        N478   1.157       .  T
C475        N481   1.157       .  T
C476        N485   1.157       .  T
C477        N483   1.156       .  T
N480       C1070   1.157       .  T
C486        C487   1.404       .  A
C486        C491   1.417       .  A
C486        C504   1.455       .  S
C487        C488   1.402       .  A
C487        C492   1.505       .  S
C488        C489   1.412       .  A
C488        C493   1.454       .  S
C489        C490   1.448       .  A
C489        C505   1.453       .  S
C490        C491   1.448       .  A
C491        C494   1.450       .  S
C492        C495   1.412       .  A
C492        C499   1.409       .  A
C493        N510   1.157       .  T
C494        N512   1.158       .  T
C495        C496   1.416       .  A
C495        C500   1.450       .  S
C496        C497   1.415       .  A
C496        C502   1.447       .  S
C497        C498   1.415       .  A
C498        C499   1.407       .  A
C498        C501   1.453       .  S
C499        C503   1.445       .  S
C500        N507   1.157       .  T
C501        N508   1.157       .  T
C502        N506   1.157       .  T
C503        N509   1.154       .  T
C504        N513   1.157       .  T
C505        N511   1.157       .  T
C514        C515   1.410       .  A
C514        C519   1.417       .  A
C514        C532   1.452       .  S
C515       C1113   1.409       .  A
C515        C520   1.508       .  S
C516        C517   1.416       .  A
C516       C1112   1.411   1_554  A
C516        C521   1.452       .  S
C517       C1115   1.425   1_554  A
C517        C533   1.451       .  S
C518        C519   1.427       .  A
C518       C1114   1.428       .  A
C519        C522   1.451       .  S
C520        C523   1.411       .  A
C520        C527   1.412       .  A
C521        N538   1.157       .  T
C522        N540   1.158   1_545  T
C523        C524   1.414       .  A
C523        C528   1.452       .  S
C524        C525   1.415       .  A
C524        C530   1.446       .  S
C525        N598   1.454       .  S
C525       C1123   1.415       .  A
C526       C1122   1.416   1_556  A
C526       C1124   1.415       .  A
C526        C529   1.446       .  S
C527       C1123   1.416       .  A
C527       C1128   1.450       .  S
C528        N535   1.157       .  T
C529        N536   1.157       .  T
C530        N534   1.157       .  T
C531       C1124   1.451       .  S
C531        N537   1.157       .  T
C532        N541   1.157       .  T
C533        N539   1.158       .  T
C542        C543   1.402       .  A
C542        C547   1.417       .  A
C542        C560   1.455       .  S
C543        C544   1.397       .  A
C543        C548   1.506       .  S
C544        C545   1.420       .  A
C544        C549   1.457       .  S
C545        C546   1.458       .  A
C545        C561   1.451   1_655  S
C546        C547   1.448       .  A
C547        C550   1.450       .  S
C548        C551   1.411       .  A
C548        C555   1.409       .  A
C549        N566   1.157       .  T
C550        N568   1.156       .  T
C551        C552   1.416       .  A
C551        C556   1.451       .  S
C552        C553   1.416       .  A
C552       C1155   1.447   1_554  S
C553        C554   1.421       .  A
C554        C555   1.411       .  A
C554        C557   1.452       .  S
C555        C559   1.452       .  S
C556        N563   1.157       .  T
C557        N564   1.157       .  T
C558       C1149   1.449       .  S
C558        N562   1.157       .  T
C559        N565   1.157       .  T
C560        N569   1.157       .  T
C561        N567   1.158       .  T
C570        C571   1.396       .  A
C570        C575   1.417       .  A
C570        C588   1.457       .  S
C571        C572   1.400       .  A
C571        C576   1.498       .  S
C572        C573   1.415       .  A
C572        C577   1.455       .  S
C573        C574   1.448       .  A
C573        C589   1.452       .  S
C574        C575   1.456       .  A
C575        C578   1.451   1_545  S
C576        C579   1.408       .  A
C576        C583   1.411       .  A
C577        N594   1.157       .  T
C578        N596   1.158       .  T
C579        C580   1.407       .  A
C579        C584   1.452       .  S
C580        C581   1.418       .  A
C580        C586   1.452       .  S
C581        C582   1.415       .  A
C582        C583   1.414       .  A
C582       C1182   1.448       .  S
C583        C587   1.451       .  S
C584        N591   1.157       .  T
C585       C1179   1.448   1_554  S
C585        N592   1.157       .  T
C586        N590   1.157       .  T
C587        N593   1.157       .  T
C588        N597   1.157       .  T
C589        N595   1.157       .  T
N598        C602   1.364       .  A
C599        C600   1.380   1_556  A
C599       C1178   1.493       .  S
C600        H603   1.082   1_554  S
C601        C602   1.381       .  A
C601        H604   1.082       .  S
C602       C1150   1.488       .  S
N605        C606   1.360       .  A
N605       C1038   1.442       .  S
C606        C607   1.380       .  A
C606       C1066   1.495       .  S
C607        H610   1.081       .  S
C608        C609   1.387       .  A
C608        H611   1.082       .  S
C609       C1094   1.506       .  S
N612        C616   1.367       .  A
C613        C614   1.383       .  A
C613       C1003   1.500       .  S
C614        H617   1.082       .  S
C615        C616   1.381       .  A
C615        H618   1.082       .  S
C616        C982   1.504       .  S
N619        C620   1.367       .  A
N619        C863   1.446       .  S
C620        C621   1.383       .  A
C620        C898   1.505       .  S
C621        H624   1.083       .  S
C622        C623   1.382       .  A
C622        H625   1.082       .  S
C623        C926   1.509       .  S
N626        C630   1.363       .  A
C627        C628   1.381       .  A
C627        C842   1.506   1_554  S
C628        H631   1.082       .  S
C629        C630   1.384       .  A
C629        H632   1.082       .  S
C630        C807   1.495       .  S
N633        C634   1.364       .  A
N633        C702   1.437       .  S
C634        C635   1.387       .  A
C634        C723   1.514       .  S
C635        H638   1.082       .  S
C636        C637   1.382       .  A
C636        H639   1.081       .  S
C637        C758   1.500   1_554  S
O640       Mg642   2.146   1_545  S
O640        C675   1.236       .  S
C641        H680   1.081       .  S
C641        O654   1.236       .  S
C641        O678   1.271   1_455  A
Mg642       O682   2.258       .  S
Mg642       O653   2.294       .  S
O643       Mg668   2.143   1_665  S
O643        C664   1.236       .  S
O644        C675   1.271       .  A
O644       Mg668   2.305       .  S
C645        C779   1.517       .  S
C645        O647   1.273       .  A
C645        O659   1.278       .  A
O646        C674   1.269   1_545  A
O646       Mg648   2.292       .  S
O647       Mg679   2.283   1_655  S
Mg648       O654   2.158       .  S
Mg648       O662   2.274       .  S
C649        C695   1.505       .  S
C649        O687   1.271       .  A
C649        O655   1.275       .  A
O650        C657   1.275       .  A
H651        C664   1.081       .  S
C652        H677   1.082       .  S
C652        O666   1.236       .  S
C652        O667   1.270       .  A
O653        C676   1.269       .  A
C656       C1115   1.513       .  S
C656        O669   1.272       .  A
C656        O661   1.277       .  A
C657       C1031   1.478       .  S
C657        O684   1.269       .  A
Mg658       O665   2.133   1_655  S
Mg658       O660   2.302       .  S
Mg658       O687   2.254       .  S
O660        C664   1.271       .  A
O662        C681   1.274       .  A
O663        C683   1.276       .  A
O665        C676   1.236       .  S
O666       Mg685   2.151       .  S
O667       Mg679   2.295   1_655  S
Mg668       O684   2.237       .  S
O669       Mg685   2.271   1_545  S
H670        C675   1.081       .  S
O671       Mg679   2.145       .  S
O671        C674   1.235       .  S
H672        C674   1.082       .  S
H673        C676   1.082       .  S
O678       Mg685   2.306   1_545  S
C681        C954   1.503       .  S
C681        O686   1.277       .  A
O682        C683   1.271       .  A
C683        C870   1.479       .  S
C688        C835   1.618       .  S
C688        C891   1.609       .  S
C688       C1087   1.611       .  S
C688       C1143   1.614   1_455  S
C689        C730   1.608       .  S
C689        C919   1.617       .  S
C689        C975   1.616   1_565  S
C689       C1171   1.614   1_565  S
C690        C751   1.617       .  S
C690        C814   1.613       .  S
C690       C1010   1.612       .  S
C690       C1059   1.615       .  S
C691        C692   1.410       .  A
C691        C696   1.413       .  A
C691        C709   1.452       .  S
C692        C697   1.497       .  S
C693        C694   1.402       .  A
C693        C698   1.454       .  S
C694        C710   1.452       .  S
C695        C696   1.424       .  A
C696        C699   1.452       .  S
C697        C700   1.416       .  A
C698        N715   1.157       .  T
C699        N717   1.158       .  T
C700        C701   1.412       .  A
C700        C705   1.450       .  S
C701        C702   1.405       .  A
C701        C707   1.447       .  S
C703        C704   1.402       .  A
C703        C706   1.453       .  S
C704        C708   1.452       .  S
C705        N712   1.157       .  T
C706        N713   1.158       .  T
C707        N711   1.157       .  T
C708        N714   1.157       .  T
C709        N718   1.157       .  T
C710        N716   1.158       .  T
C719        C720   1.410       .  A
C719        C724   1.416       .  A
C719        C737   1.453       .  S
C720        C721   1.410       .  A
C720        C725   1.514       .  S
C721        C722   1.415       .  A
C721        C726   1.450       .  S
C722        C723   1.425       .  A
C723        C724   1.421       .  A
C724        C727   1.444       .  S
C725        C728   1.406       .  A
C725        C732   1.405       .  A
C726        N743   1.157       .  T
C727        N745   1.157       .  T
C728        C729   1.421       .  A
C728        C733   1.454       .  S
C729        C730   1.448       .  A
C729        C735   1.450       .  S
C730        C731   1.448       .  A
C731        C732   1.412       .  A
C731        C734   1.453       .  S
C732        C736   1.455       .  S
C733        N740   1.157       .  T
C734        N741   1.157       .  T
C735        N739   1.158       .  T
C736        N742   1.157       .  T
C737        N746   1.157       .  T
C738        N744   1.157       .  T
C747        C748   1.400       .  A
C747        C752   1.422       .  A
C747        C765   1.455       .  S
C748        C749   1.401       .  A
C748        C753   1.508       .  S
C749        C750   1.417       .  A
C749        C754   1.456       .  S
C750        C751   1.447       .  A
C750        C766   1.447       .  S
C751        C752   1.456       .  A
C752        C755   1.452       .  S
C753        C756   1.411       .  A
C753        C760   1.409       .  A
C754        N771   1.157       .  T
C755        N773   1.158       .  T
C756        C757   1.413       .  A
C756        C761   1.451       .  S
C757        C758   1.417       .  A
C757        C763   1.450       .  S
C758        C759   1.417   1_556  A
C759        C760   1.415   1_554  A
C760        C764   1.450       .  S
C761        N768   1.157       .  T
C762        N769   1.157       .  T
C763        N767   1.157       .  T
C764        N770   1.157       .  T
C765        N774   1.157       .  T
C766        N772   1.156       .  T
C775        C780   1.414       .  A
C775        C793   1.452       .  S
C776        C777   1.412       .  A
C776        C781   1.509       .  S
C777        C778   1.414       .  A
C777        C782   1.451   1_556  S
C778        C779   1.421       .  A
C778        C794   1.449       .  S
C780        C783   1.451       .  S
C781        C788   1.417       .  A
C782        N799   1.157       .  T
C783        N801   1.158   1_655  T
C784        C785   1.410       .  A
C784        C789   1.453       .  S
C785        C791   1.447       .  S
C786        C787   1.411   1_554  A
C787        C788   1.417       .  A
C787        C790   1.448       .  S
C788        C792   1.449       .  S
C789        N796   1.157       .  T
C790        N797   1.157       .  T
C791        N795   1.157       .  T
C792        N798   1.157       .  T
C793        N802   1.157       .  T
C794        N800   1.157       .  T
C803        C804   1.413       .  A
C803        C808   1.415       .  A
C803        C821   1.452       .  S
C804        C805   1.413       .  A
C804        C809   1.509       .  S
C805        C806   1.409       .  A
C805        C810   1.452       .  S
C806        C807   1.416       .  A
C806        C822   1.453       .  S
C807        C808   1.415       .  A
C808        C811   1.446       .  S
C809        C812   1.400       .  A
C809        C816   1.402       .  A
C810        N827   1.157       .  T
C811        N829   1.157       .  T
C812        C813   1.419       .  A
C812        C817   1.456       .  S
C813        C814   1.451       .  A
C813        C819   1.443       .  S
C814        C815   1.451       .  A
C815        C816   1.415       .  A
C815        C818   1.452       .  S
C816        C820   1.455       .  S
C817        N824   1.157       .  T
C818        N825   1.158       .  T
C819        N823   1.157       .  T
C820        N826   1.157       .  T
C821        N830   1.157       .  T
C831        C832   1.403       .  A
C831        C836   1.419       .  A
C831        C849   1.455       .  S
C832        C833   1.400       .  A
C832        C837   1.515       .  S
C833        C834   1.423   1_655  A
C833        C838   1.456       .  S
C834        C835   1.457       .  A
C834        C850   1.450       .  S
C835        C836   1.448   1_455  A
C836        C839   1.451       .  S
C837        C840   1.408       .  A
C837        C844   1.413       .  A
C838        N855   1.157       .  T
C839        N857   1.157       .  T
C840        C841   1.412   1_556  A
C840        C845   1.446       .  S
C841        C842   1.418   1_554  A
C842        C843   1.417       .  A
C843        C844   1.420       .  A
C843        C846   1.447       .  S
C844        C848   1.451       .  S
C845        N852   1.155   1_556  T
C846        N853   1.157       .  T
C847        N851   1.157       .  T
C848        N854   1.157       .  T
C849        N858   1.157       .  T
C850        N856   1.158       .  T
C859        C860   1.410       .  A
C859        C864   1.412       .  A
C859        C877   1.450       .  S
C860        C865   1.494       .  S
C861        C862   1.411       .  A
C861        C866   1.451       .  S
C862        C878   1.449       .  S
C863        C864   1.414       .  A
C864        C867   1.449       .  S
C865        C868   1.410       .  A
C865        C872   1.412       .  A
C866        N883   1.157       .  T
C867        N885   1.157       .  T
C868        C869   1.408       .  A
C868        C873   1.451       .  S
C869        C870   1.412       .  A
C869        C875   1.452       .  S
C870        C871   1.411       .  A
C871        C872   1.413       .  A
C871        C874   1.450       .  S
C873        N880   1.157       .  T
C875        N879   1.157       .  T
C876        N882   1.157       .  T
C877        N886   1.157       .  T
C878        N884   1.157       .  T
C887        C888   1.406       .  A
C887        C892   1.415       .  A
C887        C905   1.453       .  S
C888        C889   1.404       .  A
C888        C893   1.512       .  S
C889        C890   1.413       .  A
C889        C894   1.454       .  S
C890        C891   1.445       .  A
C890        C906   1.445       .  S
C891        C892   1.449       .  A
C892        C895   1.451       .  S
C893        C896   1.415       .  A
C893        C900   1.417       .  A
C894        N911   1.157       .  T
C895        N913   1.157       .  T
C896        C897   1.406       .  A
C896        C901   1.452       .  S
C897        C898   1.417       .  A
C898        C899   1.416       .  A
C899        C900   1.417       .  A
C899        C902   1.446       .  S
C900        C904   1.451       .  S
C901        N908   1.157       .  T
C902        N909   1.157       .  T
C903        N907   1.156       .  T
C904        N910   1.157       .  T
C905        N914   1.157       .  T
C906        N912   1.157       .  T
C915        C916   1.406       .  A
C915        C920   1.417       .  A
C915        C933   1.453       .  S
C916        C917   1.405       .  A
C916        C921   1.519       .  S
C917        C918   1.419       .  A
C917        C922   1.455       .  S
C918        C919   1.451       .  A
C918        C934   1.448       .  S
C919        C920   1.450       .  A
C920        C923   1.452       .  S
C921        C924   1.416       .  A
C921        C928   1.418       .  A
C922        N939   1.157       .  T
C923        N941   1.157       .  T
C924        C925   1.411       .  A
C924        C929   1.452       .  S
C925        C926   1.419       .  A
C926        C927   1.416       .  A
C927        C928   1.421       .  A
C927        C930   1.448       .  S
C928        C932   1.450       .  S
C929        N936   1.157       .  T
C930        N937   1.157       .  T
C931        N935   1.157       .  T
C932        N938   1.157       .  T
C933        N942   1.157       .  T
C934        N940   1.158       .  T
C943        C948   1.408       .  A
C943        C961   1.452       .  S
C944        C945   1.410       .  A
C944        C949   1.502       .  S
C945        C946   1.415       .  A
C945        C950   1.450       .  S
C946        C947   1.417       .  A
C946        C962   1.448       .  S
C948        C951   1.448       .  S
C949        C952   1.411       .  A
C949        C956   1.409       .  A
C950        N967   1.157       .  T
C951        N969   1.157       .  T
C952        C953   1.412       .  A
C952        C957   1.452       .  S
C953        C954   1.422       .  A
C953        C959   1.452       .  S
C954        C955   1.421       .  A
C955        C956   1.415       .  A
C955        C958   1.450       .  S
C956        C960   1.451       .  S
C957        N964   1.157       .  T
C958        N965   1.157   1_545  T
C959        N963   1.157       .  T
C960        N966   1.157       .  T
C961        N970   1.157       .  T
C962        N968   1.157       .  T
C971        C972   1.399       .  A
C971        C976   1.417       .  A
C971        C989   1.456       .  S
C972        C973   1.400       .  A
C972        C977   1.509       .  S
C973        C974   1.424       .  A
C973        C978   1.455       .  S
C974        C975   1.456       .  A
C974        C990   1.450   1_545  S
C975        C976   1.450       .  A
C976        C979   1.451       .  S
C977        C980   1.412       .  A
C977        C984   1.410       .  A
C978        N995   1.157       .  T
C979        N997   1.157       .  T
C980        C981   1.418       .  A
C980        C985   1.451       .  S
C981        C982   1.418       .  A
C982        C983   1.420       .  A
C983        C984   1.413       .  A
C983        C986   1.452       .  S
C984        C988   1.451       .  S
C985        N992   1.157       .  T
C986        N993   1.158       .  T
C987        N991   1.157       .  T
C988        N994   1.157       .  T
C989        N998   1.157       .  T
C990        N996   1.159       .  T
C999       C1000   1.415       .  A
C999       C1004   1.415       .  A
C999       C1017   1.451       .  S
C1000      C1001   1.412       .  A
C1000      C1005   1.509       .  S
C1001      C1002   1.408       .  A
C1001      C1006   1.452       .  S
C1002      C1003   1.419       .  A
C1002      C1018   1.453       .  S
C1003      C1004   1.415       .  A
C1004      C1007   1.447       .  S
C1005      C1008   1.404       .  A
C1005      C1012   1.401       .  A
C1006      N1023   1.157       .  T
C1008      C1009   1.422       .  A
C1008      C1013   1.459       .  S
C1009      C1010   1.452       .  A
C1009      C1015   1.448       .  S
C1010      C1011   1.451       .  A
C1011      C1012   1.416       .  A
C1011      C1014   1.453       .  S
C1012      C1016   1.456       .  S
C1013      N1020   1.158       .  T
C1014      N1021   1.157       .  T
C1015      N1019   1.158       .  T
C1016      N1022   1.157       .  T
C1017      N1026   1.157       .  T
C1018      N1024   1.157       .  T
C1027      C1028   1.409       .  A
C1027      C1032   1.406       .  A
C1027      C1045   1.452       .  S
C1028      C1029   1.411       .  A
C1028      C1033   1.490       .  S
C1029      C1030   1.410       .  A
C1030      C1031   1.411       .  A
C1031      C1032   1.416       .  A
C1032      C1035   1.453       .  S
C1033      C1036   1.410       .  A
C1034      N1051   1.157       .  T
C1035      N1053   1.158       .  T
C1036      C1037   1.412       .  A
C1036      C1041   1.450       .  S
C1037      C1038   1.412       .  A
C1037      C1043   1.446       .  S
C1039      C1040   1.402       .  A
C1039      C1042   1.450       .  S
C1040      C1044   1.453       .  S
C1041      N1048   1.157       .  T
C1042      N1049   1.157       .  T
C1043      N1047   1.157       .  T
C1044      N1050   1.157       .  T
C1045      N1054   1.157       .  T
C1046      N1052   1.157       .  T
C1055      C1056   1.398       .  A
C1055      C1060   1.416       .  A
C1055      C1073   1.455       .  S
C1056      C1057   1.404       .  A
C1056      C1061   1.505       .  S
C1057      C1058   1.420       .  A
C1057      C1062   1.455       .  S
C1058      C1059   1.446       .  A
C1058      C1074   1.450       .  S
C1059      C1060   1.453       .  A
C1060      C1063   1.453       .  S
C1061      C1064   1.410       .  A
C1061      C1068   1.412       .  A
C1062      N1079   1.157       .  T
C1063      N1081   1.158       .  T
C1064      C1065   1.413       .  A
C1064      C1069   1.451       .  S
C1065      C1066   1.416       .  A
C1065      C1071   1.448       .  S
C1066      C1067   1.415       .  A
C1067      C1068   1.413       .  A
C1067      C1070   1.448       .  S
C1068      C1072   1.450       .  S
C1069      N1076   1.157       .  T
C1071      N1075   1.157       .  T
C1072      N1078   1.157       .  T
C1073      N1082   1.157       .  T
C1074      N1080   1.157       .  T
C1083      C1084   1.402       .  A
C1083      C1088   1.422       .  A
C1083      C1101   1.454       .  S
C1084      C1085   1.399       .  A
C1084      C1089   1.508       .  S
C1085      C1086   1.415       .  A
C1085      C1090   1.455       .  S
C1086      C1087   1.451       .  A
C1086      C1102   1.452       .  S
C1087      C1088   1.450       .  A
C1088      C1091   1.449       .  S
C1089      C1092   1.410       .  A
C1089      C1096   1.408       .  A
C1090      N1107   1.157       .  T
C1091      N1109   1.158       .  T
C1092      C1093   1.418       .  A
C1092      C1097   1.451       .  S
C1093      C1094   1.419       .  A
C1093      C1099   1.446       .  S
C1094      C1095   1.420       .  A
C1095      C1096   1.411       .  A
C1095      C1098   1.452       .  S
C1096      C1100   1.449       .  S
C1097      N1104   1.157       .  T
C1098      N1105   1.157       .  T
C1099      N1103   1.157       .  T
C1100      N1106   1.156       .  T
C1101      N1110   1.157       .  T
C1102      N1108   1.157       .  T
C1111      C1112   1.410       .  A
C1111      C1116   1.415       .  A
C1111      C1129   1.451       .  S
C1112      C1117   1.508       .  S
C1113      C1114   1.416       .  A
C1113      C1118   1.453       .  S
C1114      C1130   1.451       .  S
C1115      C1116   1.424       .  A
C1116      C1119   1.451       .  S
C1117      C1120   1.412   1_556  A
C1117      C1124   1.411       .  A
C1118      N1135   1.157       .  T
C1119      N1137   1.157   1_545  T
C1120      C1121   1.415       .  A
C1120      C1125   1.450       .  S
C1121      C1122   1.414       .  A
C1121      C1127   1.447       .  S
C1123      C1126   1.446       .  S
C1125      N1132   1.157       .  T
C1126      N1133   1.157       .  T
C1127      N1131   1.157       .  T
C1128      N1134   1.157       .  T
C1129      N1138   1.157       .  T
C1130      N1136   1.158       .  T
C1139      C1140   1.401       .  A
C1139      C1144   1.416       .  A
C1139      C1157   1.454       .  S
C1140      C1141   1.397       .  A
C1140      C1145   1.502       .  S
C1141      C1142   1.418       .  A
C1141      C1146   1.455       .  S
C1142      C1143   1.454       .  A
C1142      C1158   1.451   1_655  S
C1143      C1144   1.449       .  A
C1144      C1147   1.451       .  S
C1145      C1148   1.413       .  A
C1145      C1152   1.409       .  A
C1146      N1163   1.157       .  T
C1147      N1165   1.157       .  T
C1148      C1149   1.415       .  A
C1148      C1153   1.451       .  S
C1149      C1150   1.414       .  A
C1150      C1151   1.416       .  A
C1151      C1152   1.407       .  A
C1151      C1154   1.452       .  S
C1152      C1156   1.451       .  S
C1153      N1160   1.157       .  T
C1154      N1161   1.157       .  T
C1155      N1159   1.157       .  T
C1156      N1162   1.157       .  T
C1157      N1166   1.157       .  T
C1158      N1164   1.158       .  T
C1167      C1168   1.397       .  A
C1167      C1172   1.418       .  A
C1167      C1185   1.457       .  S
C1168      C1169   1.401       .  A
C1168      C1173   1.503       .  S
C1169      C1170   1.417       .  A
C1169      C1174   1.454       .  S
C1170      C1171   1.449       .  A
C1170      C1186   1.453       .  S
C1171      C1172   1.457       .  A
C1172      C1175   1.451   1_545  S
C1173      C1176   1.409       .  A
C1173      C1180   1.412       .  A
C1174      N1191   1.157       .  T
C1175      N1193   1.158       .  T
C1176      C1177   1.409       .  A
C1176      C1181   1.452       .  S
C1177      C1178   1.418       .  A
C1177      C1183   1.452       .  S
C1178      C1179   1.415       .  A
C1179      C1180   1.415       .  A
C1180      C1184   1.451       .  S
C1181      N1188   1.157       .  T
C1182      N1189   1.157       .  T
C1183      N1187   1.157       .  T
C1184      N1190   1.157       .  T
C1185      N1194   1.157       .  T
C1186      N1192   1.157       .  T
