geometry optimzed in LAMMPS
_audit_creation_date              2020-11-30 
_audit_creation_method            'lammps2cif' 
_symmetry_space_group_name_H-M    'P1' 
_symmetry_Int_Tables_number       1 
_symmetry_cell_setting            triclinic 
loop_ 
_symmetry_equiv_pos_as_xyz 
  x,y,z 
_cell_length_a                    46.6948802 
_cell_length_b                    48.01193038413837 
_cell_length_c                    34.87282302443914 
_cell_angle_alpha                 89.89549125686868 
_cell_angle_beta                  90.09119697102564 
_cell_angle_gamma                 90.23418227495439 
loop_ 
_atom_site_label 
_atom_site_type_symbol 
_atom_site_fract_x 
_atom_site_fract_y 
_atom_site_fract_z 
_atom_site_charge 
C1          C  0.42318886  0.17793715  0.45837040     0.30700
C2          C  0.42525399  0.17721695  0.03738509     0.30700
C3          C  0.43560129  0.15198661  0.47759899    -0.05500
C4          C  0.44019813  0.20165951  0.47762626    -0.06300
C5          C  0.39381864  0.18143339  0.47800388    -0.06200
C6          C  0.43694653  0.15148529  0.01709277    -0.05500
C7          C  0.44181510  0.20142113  0.01817951    -0.06300
C8          C  0.39545380  0.18060978  0.01841801    -0.06200
C9          C  0.44946114  0.12693607  0.02836853    -0.31600
N10         N  0.45787405  0.11311624  0.99649374     0.14900
C11         C  0.44940585  0.12825235  0.46564813    -0.35200
H12         H  0.45417853  0.12251229  0.43634881     0.16900
C13         C  0.45743421  0.22415435  0.03018172    -0.30600
N14         N  0.46619843  0.23757659  0.49759347     0.13600
C15         C  0.45646184  0.22411699  0.46593650    -0.30600
C16         C  0.37236713  0.19652346  0.03007015    -0.30900
N17         N  0.35853274  0.20645528  0.99897223     0.14100
H18         H  0.36792575  0.20325601  0.05904832     0.16800
C19         C  0.37168123  0.19894376  0.46761043    -0.30900
H20         H  0.36774656  0.20718194  0.43917440     0.16800
H21         H  0.46189670  0.22963448  0.43674498     0.16800
H22         H  0.45350442  0.12026552  0.05754304     0.16800
H23         H  0.46181226  0.23007013  0.05952260     0.16800
C24         C  0.42395577  0.17722998  0.20835384     0.30700
C25         C  0.42504801  0.17813488  0.28749763     0.30700
C26         C  0.43476954  0.15082720  0.22841644    -0.05500
C27         C  0.44254800  0.20030998  0.22691431    -0.06300
C28         C  0.39488368  0.18248812  0.22812148    -0.06200
C29         C  0.43558451  0.15143345  0.26823452    -0.05500
C30         C  0.44276257  0.20102197  0.26705549    -0.06300
C31         C  0.39523349  0.18243386  0.26858202    -0.06200
C32         C  0.44907867  0.12748532  0.28025393    -0.31600
N33         N  0.45591488  0.11221203  0.24889878     0.14900
C34         C  0.44715661  0.12614322  0.21707238    -0.31600
H35         H  0.45118581  0.11965167  0.18787227     0.16900
C36         C  0.46041292  0.22281668  0.27767440    -0.30600
N37         N  0.47164372  0.23453087  0.24553870     0.13600
C38         C  0.46038180  0.22148725  0.21445213    -0.30600
C39         C  0.37175030  0.19792758  0.28006812    -0.30900
N40         N  0.35726104  0.20676760  0.24879115     0.14100
H41         H  0.36719778  0.20487959  0.30891679     0.16800
C42         C  0.37196795  0.19895526  0.21728148    -0.30900
H43         H  0.36741138  0.20631353  0.18856116     0.16800
H44         H  0.46548032  0.22671307  0.18505381     0.16800
H45         H  0.45455068  0.12206213  0.30949871     0.16800
H46         H  0.46510673  0.22951715  0.30659212     0.16800
C47         C  0.36597872  0.42126463  0.45910699     0.30700
C48         C  0.36476031  0.42240560  0.03800877     0.30700
C49         C  0.39327334  0.43266542  0.47845434    -0.05500
C50         C  0.34290893  0.43997694  0.47763491    -0.06300
C51         C  0.36136860  0.39324153  0.47954307    -0.06200
C52         C  0.39102905  0.43580013  0.01851257    -0.05500
C53         C  0.34030136  0.43810741  0.01782756    -0.06300
C54         C  0.36282367  0.39346301  0.01951561    -0.06200
C55         C  0.41325476  0.45290527  0.02995423    -0.31600
N56         N  0.42773146  0.46147301  0.49785348     0.14900
C57         C  0.41504533  0.45019950  0.46656192    -0.31600
H58         H  0.42000109  0.45600477  0.43731813     0.16900
C59         C  0.32204721  0.45917061  0.02855278    -0.30600
N60         N  0.31170273  0.47200629  0.49610321     0.13600
C61         C  0.32407382  0.46012769  0.46511345    -0.30600
C62         C  0.34635089  0.37096021  0.03088561    -0.30900
N63         N  0.33565349  0.35726036  0.50055062     0.14100
H64         H  0.33822764  0.36729243  0.05952492     0.16800
C65         C  0.34574613  0.37012662  0.46874379    -0.30900
H66         H  0.33942813  0.36486480  0.43975447     0.16800
H67         H  0.32018314  0.46652767  0.43581623     0.16800
H68         H  0.41821523  0.45922523  0.05900064     0.16800
H69         H  0.31847218  0.46689375  0.05726397     0.16800
C70         C  0.36589514  0.42300672  0.20923043     0.30700
C71         C  0.36647827  0.42262403  0.28828268     0.30700
C72         C  0.39570714  0.42750424  0.22809203    -0.05500
C73         C  0.34883101  0.44630941  0.22903152    -0.06300
C74         C  0.35498872  0.39645886  0.22888041    -0.06200
C75         C  0.39615380  0.42683069  0.26890899    -0.05500
C76         C  0.34933868  0.44623264  0.26911077    -0.06300
C77         C  0.35497416  0.39648100  0.26860784    -0.06200
C78         C  0.41831765  0.44443652  0.28003841    -0.31600
N79         N  0.43115111  0.45540715  0.24874728     0.14900
C80         C  0.41695256  0.44629442  0.21739236    -0.31600
H81         H  0.42016402  0.45469983  0.18889576     0.16900
C82         C  0.33339840  0.46862000  0.28108719    -0.30600
N83         N  0.32238253  0.48144144  0.24968019     0.13600
C84         C  0.33234689  0.46861684  0.21777964    -0.30600
C85         C  0.34093565  0.37273914  0.28048917    -0.30900
N86         N  0.33284804  0.35822665  0.24899614     0.14100
H87         H  0.33583276  0.36701982  0.30974098     0.16800
C88         C  0.34155556  0.37226651  0.21727502    -0.30900
H89         H  0.33661837  0.36631500  0.18806954     0.16800
H90         H  0.32726606  0.47471190  0.18869198     0.16800
H91         H  0.42254508  0.45149477  0.30896221     0.16800
H92         H  0.32929076  0.47474035  0.31039283     0.16800
O93         O  0.47280205  0.47426326  0.47495033    -0.77800
C94         C  0.01925779  0.02391610  0.39443445     0.83200
O95         O  0.07220490  0.47762309  0.01925096    -0.79000
O96         O  0.06554302  0.07546558  0.47749632    -0.80400
O97         O  0.46785226  0.06878875  0.02005071    -0.80200
O98         O  0.45375586  0.49959583  0.02057030    -0.78900
Zn99       Zn  0.01287943  0.49068989  0.46587158     1.55700
O100        O  0.99462444  0.08715260  0.47439808    -0.80300
Cd101      Cd  0.48481737  0.02972533  0.02991877     1.59700
Cd102      Cd  0.05433312  0.01593875  0.03015000     1.59600
O103        O  0.49571732  0.02832272  0.08609487    -0.80300
O104        O  0.01892712  0.02312914  0.49798207    -1.90800
Cd105      Cd  0.02590755  0.05742154  0.46711136     1.59900
O106        O  0.04237682  0.01784915  0.08623842    -0.80200
O107        O  0.02460539  0.04677909  0.41123499    -0.78900
C108        C  0.06466416  0.45865638  0.49688286     0.83700
C109        C  0.45215278  0.47956120  0.49762508     0.83300
O110        O  0.01472385  0.50177310  0.41118266    -0.77800
C111        C  0.47431233  0.08812168  0.99653699     0.84100
O112        O  0.04318235  0.46081919  0.47444240    -0.77900
C113        C  0.01889413  0.02295807  0.10321512     0.84300
C114        C  0.08578901  0.06933468  0.50048238     0.84600
O115        O  0.08543541  0.04691132  0.02225493    -0.80300
O116        O  0.04524582  0.46073162  0.27287242    -0.77800
C117        C  0.01915623  0.02376124  0.35312352     0.83200
O118        O  0.45427848  0.49559832  0.22574149    -0.79000
O119        O  0.99441977  0.08650344  0.26961418    -0.80400
O120        O  0.08505373  0.04557862  0.22618555    -0.80200
O121        O  0.07117926  0.47754528  0.22456425    -0.78900
Zn122      Zn  0.01414741  0.48940235  0.28079105     1.55700
O123        O  0.06689464  0.07384300  0.27030645    -0.80300
Cd124      Cd  0.05316066  0.01613483  0.21775171     1.59700
Cd125      Cd  0.48373828  0.02800322  0.21850105     1.59600
O126        O  0.04200741  0.01842858  0.16194922    -0.80300
O127        O  0.01853502  0.02216183  0.24973436    -1.90800
Cd128      Cd  0.02599330  0.05694181  0.27938853     1.59900
O129        O  0.49530114  0.02714691  0.16217435    -0.80200
O130        O  0.02388210  0.04659803  0.33571001    -0.78900
C131        C  0.45444149  0.47506545  0.24903081     0.83700
C132        C  0.06563436  0.45850780  0.24886990     0.83300
O133        O  0.01557502  0.50112523  0.33488892    -0.77800
C134        C  0.08726661  0.06664932  0.24810554     0.84100
O135        O  0.47523958  0.47114210  0.27208056    -0.77900
C136        C  0.01855744  0.02281675  0.14458899     0.84300
C137        C  0.47297508  0.08747820  0.24913776     0.84600
O138        O  0.46546103  0.06687830  0.22828885    -0.80300
C139        C  0.10991871  0.36763959  0.45701658     0.30700
C140        C  0.11342356  0.36812874  0.03623888     0.30700
C141        C  0.10526824  0.39625835  0.47607886    -0.05500
C142        C  0.08775163  0.34917096  0.47776150    -0.06300
C143        C  0.13794043  0.35721731  0.47582306    -0.06200
C144        C  0.10781265  0.39644909  0.01625696    -0.05500
C145        C  0.08942101  0.35003551  0.01833819    -0.06300
C146        C  0.14043156  0.35792551  0.01560762    -0.06200
C147        C  0.09234370  0.41966442  0.02733628    -0.31600
N148        N  0.08162362  0.43376917  0.49629535     0.14900
C149        C  0.08927263  0.41909132  0.46481804    -0.31600
H150        H  0.08222215  0.42374318  0.43594260     0.16900
C151        C  0.06778914  0.33289488  0.03161525    -0.30600
N152        N  0.05445687  0.32016099  0.49971842     0.13600
C153        C  0.06751885  0.32956859  0.46753575    -0.30600
C154        C  0.16536151  0.34500626  0.02701188    -0.30900
N155        N  0.17710826  0.33492174  0.49577545     0.14100
H156        H  0.17220240  0.34138250  0.05626746     0.16800
C157        C  0.16133205  0.34163049  0.46434153    -0.30900
H158        H  0.16597696  0.33468993  0.43551472     0.16800
H159        H  0.06315047  0.32183553  0.43902183     0.16800
H160        H  0.08599388  0.42485913  0.05627144     0.16800
H161        H  0.06171690  0.32972645  0.06121424     0.16800
C162        C  0.11320972  0.36972305  0.20705034     0.30700
C163        C  0.11164306  0.36821035  0.28616276     0.30700
C164        C  0.10796734  0.39780010  0.22741936    -0.05500
C165        C  0.08941964  0.35138713  0.22502970    -0.06300
C166        C  0.14000417  0.35857670  0.22716971    -0.06200
C167        C  0.10733520  0.39690683  0.26776576    -0.05500
C168        C  0.08891348  0.35027096  0.26518637    -0.06300
C169        C  0.13925019  0.35771673  0.26713920    -0.06200
C170        C  0.09118403  0.41923905  0.27985013    -0.31600
N171        N  0.08282310  0.43397561  0.24880318     0.14900
C172        C  0.09176975  0.42061552  0.21695624    -0.31600
H173        H  0.08470199  0.42575304  0.18823367     0.16900
C174        C  0.06898420  0.33024132  0.27515104    -0.30600
N175        N  0.05666150  0.32013516  0.24269864     0.13600
C176        C  0.06904300  0.33274028  0.21198498    -0.30600
C177        C  0.16189550  0.34143414  0.27878074    -0.30900
N178        N  0.17648372  0.33311606  0.24734825     0.14100
H179        H  0.16650935  0.33466515  0.30775520     0.16800
C180        C  0.16306890  0.34287559  0.21562381    -0.30900
H181        H  0.16901850  0.33797738  0.18642439     0.16800
H182        H  0.06447094  0.32767704  0.18240141     0.16800
H183        H  0.08429650  0.42332102  0.30892316     0.16800
H184        H  0.06427858  0.32282476  0.30377929     0.16800
C185        C  0.18144929  0.11325268  0.03850397     0.30700
C186        C  0.18001781  0.11298366  0.45878781     0.30700
C187        C  0.18954734  0.14073873  0.01862111    -0.05500
C188        C  0.20076971  0.09200300  0.01856602    -0.06300
C189        C  0.15230452  0.10605372  0.01979709    -0.06200
C190        C  0.18781273  0.14098139  0.47811786    -0.05500
C191        C  0.20112475  0.09275217  0.47785427    -0.06300
C192        C  0.15134335  0.10603275  0.47931809    -0.06200
C193        C  0.19658856  0.16739181  0.46696489    -0.31600
N194        N  0.20421830  0.18194675  0.49873798     0.14900
C195        C  0.20068217  0.16579021  0.03063505    -0.31600
H196        H  0.20615695  0.17136300  0.05981769     0.16900
C197        C  0.22047524  0.07326195  0.46522448    -0.30600
N198        N  0.23167227  0.06020410  0.49627716     0.13600
C199        C  0.21870567  0.07075224  0.02959269    -0.30600
C200        C  0.12463544  0.09598759  0.46893240    -0.30900
N201        N  0.11118222  0.08626841  0.50072431     0.14100
H202        H  0.11629365  0.09382215  0.44014936     0.16800
C203        C  0.12863436  0.09082237  0.03143204    -0.30900
H204        H  0.12455866  0.08292480  0.06000325     0.16800
H205        H  0.22277165  0.06371210  0.05856438     0.16800
H206        H  0.19914412  0.17503250  0.43798084     0.16800
H207        H  0.22543423  0.06832139  0.43570153     0.16800
C208        C  0.18199149  0.11280051  0.28839361     0.30700
C209        C  0.18176961  0.11324302  0.20912739     0.30700
C210        C  0.18489167  0.14162711  0.26902285    -0.05500
C211        C  0.20534688  0.09570811  0.26848321    -0.06300
C212        C  0.15426267  0.10176148  0.26875444    -0.06200
C213        C  0.18516237  0.14167572  0.22890414    -0.05500
C214        C  0.20538958  0.09577918  0.22851559    -0.06300
C215        C  0.15477661  0.10097938  0.22861599    -0.06200
C216        C  0.19546550  0.16731512  0.21734207    -0.31600
N217        N  0.20082400  0.18290633  0.24895924     0.14900
C218        C  0.19375205  0.16776907  0.28043414    -0.31600
H219        H  0.19696273  0.17476921  0.30951186     0.16900
C220        C  0.22636372  0.07727974  0.21731195    -0.30600
N221        N  0.23950870  0.06716407  0.24913140     0.13600
C222        C  0.22649799  0.07783675  0.28051320    -0.30600
C223        C  0.13007986  0.08749491  0.21691692    -0.30900
N224        N  0.11361978  0.08219577  0.24811973     0.14100
H225        H  0.12450654  0.08169356  0.18786621     0.16800
C226        C  0.12775396  0.09130308  0.27973259    -0.30900
H227        H  0.11936101  0.08963145  0.30851831     0.16800
H228        H  0.23160150  0.07240743  0.30987472     0.16800
H229        H  0.20170682  0.17297223  0.18846652     0.16800
H230        H  0.23108296  0.07057993  0.18841410     0.16800
O231        O  0.24418950  0.26739764  0.41284104    -0.77800
C232        C  0.22096483  0.20699639  0.49900123     0.83200
O233        O  0.22448681  0.32445980  0.01824480    -0.79000
O234        O  0.27189436  0.24893822  0.08717055    -0.80400
O235        O  0.33203785  0.24518047  0.47604568    -0.80200
O236        O  0.29142910  0.27531375  0.41136452    -0.78900
Zn237      Zn  0.23273339  0.26544639  0.46735892     1.55700
O238        O  0.31456229  0.22013316  0.02389965    -0.80300
Cd239      Cd  0.30223808  0.27628221  0.46743144     1.59700
Cd240      Cd  0.26347579  0.30540933  0.02977175     1.59600
O241        O  0.32161302  0.31408567  0.47722140    -0.80300
O242        O  0.26685260  0.27128077  0.49843584    -1.90800
Cd243      Cd  0.27478442  0.23802247  0.03147011     1.59900
O244        O  0.29749806  0.33308859  0.02195209    -0.80200
O245        O  0.24382530  0.20826835  0.02253629    -0.78900
C246        C  0.20219958  0.31775762  0.49656702     0.83700
C247        C  0.26750386  0.27141959  0.39496295     0.83300
O248        O  0.21484727  0.22696186  0.47623395    -0.77800
C249        C  0.33430340  0.22451905  0.99948476     0.84100
O250        O  0.20322940  0.29607926  0.47549751    -0.77900
C251        C  0.31899243  0.33308832  0.99936573     0.84300
C252        C  0.26682943  0.27176489  0.10394295     0.84600
O253        O  0.26285446  0.29467099  0.08648487    -0.80300
O254        O  0.21355486  0.22715686  0.22625737    -0.77800
C255        C  0.20142207  0.31605345  0.24796682     0.83200
O256        O  0.29052532  0.27522436  0.16179713    -0.79000
O257        O  0.29319672  0.33351237  0.27127156    -0.80400
O258        O  0.27088363  0.24824051  0.33711999    -0.80200
O259        O  0.23972212  0.20807543  0.27277661    -0.78900
Zn260      Zn  0.23216067  0.26494983  0.21715295     1.55700
O261        O  0.26272446  0.29414697  0.33671888    -0.80300
Cd262      Cd  0.27220670  0.23691451  0.28115141     1.59700
Cd263      Cd  0.30152169  0.27589350  0.21771199     1.59600
O264        O  0.31206551  0.21872953  0.27216299    -0.80300
O265        O  0.26616271  0.27042491  0.24865936    -1.90800
Cd266      Cd  0.26107770  0.30443335  0.28036559     1.59900
O267        O  0.33139458  0.24482395  0.22603276    -0.80200
O268        O  0.22165149  0.32230239  0.27092162    -0.78900
C269        C  0.26674430  0.27163574  0.14493516     0.83700
C270        C  0.21861950  0.20727980  0.24954231     0.83300
O271        O  0.20279677  0.29508515  0.22575678    -0.77800
C272        C  0.26690702  0.27126743  0.35402136     0.84100
O273        O  0.24328760  0.26731963  0.16238465    -0.77900
C274        C  0.33248662  0.22427108  0.24908438     0.84300
C275        C  0.31486139  0.33410781  0.24912259     0.84600
O276        O  0.32080698  0.31401101  0.22685272    -0.80300
C277        C  0.20276668  0.12647551  0.39488763    -0.25700
C278        C  0.18149916  0.11129486  0.41457703    -0.13700
C279        C  0.16776269  0.08997819  0.39315300     0.36900
C280        C  0.16830575  0.09103136  0.35276638    -0.25100
C281        C  0.18419431  0.11132746  0.33268497    -0.14400
C282        C  0.20534240  0.12569688  0.35473224     0.38000
N283        N  0.23150302  0.13652933  0.33870400    -0.88600
H284        H  0.21918863  0.13732073  0.41089372     0.19100
H285        H  0.15823486  0.07429343  0.33713872     0.19100
N286        N  0.15542537  0.06611634  0.41192241    -0.87600
H287        H  0.23292005  0.15783384  0.34451748     0.36500
H288        H  0.23297405  0.13352757  0.30924533     0.41600
H289        H  0.17197772  0.05507345  0.42507484     0.41200
H290        H  0.14604482  0.05257786  0.39204491     0.36100
C291        C  0.15765613  0.12165148  0.10327743    -0.25700
C292        C  0.18275364  0.11512196  0.08276420    -0.13700
C293        C  0.20877486  0.11469610  0.10426482     0.36900
C294        C  0.20774434  0.11371237  0.14453911    -0.25100
C295        C  0.18179566  0.11511768  0.16489684    -0.14400
C296        C  0.15721449  0.12297649  0.14367347     0.38000
N297        N  0.13227670  0.13347280  0.16287727    -0.88600
H298        H  0.13843278  0.12718628  0.08778888     0.19100
H299        H  0.22782888  0.11358534  0.15997740     0.19100
N300        N  0.23664651  0.11750804  0.08716231    -0.87600
H301        H  0.11614109  0.13834044  0.14319212     0.36500
H302        H  0.13805457  0.15214791  0.17623329     0.41600
H303        H  0.23584894  0.12153611  0.05784914     0.41200
H304        H  0.24795171  0.09906623  0.09170840     0.36100
C305        C  0.13487969  0.37519925  0.39273967    -0.25700
C306        C  0.10947285  0.36872652  0.41265332    -0.13700
C307        C  0.08387819  0.36842905  0.39070284     0.36900
C308        C  0.08514277  0.36741852  0.35032879    -0.25100
C309        C  0.11131932  0.36906278  0.33047790    -0.14400
C310        C  0.13582155  0.37663097  0.35234066     0.38000
N311        N  0.16119846  0.38701527  0.33379730    -0.88600
H312        H  0.15397907  0.38048712  0.40877735     0.19100
H313        H  0.06523203  0.36684575  0.33445727     0.19100
N314        N  0.05653896  0.37141792  0.40873886    -0.87600
H315        H  0.17715128  0.39167817  0.35388088     0.36500
H316        H  0.15589805  0.40577909  0.32034498     0.41600
H317        H  0.04751499  0.39004954  0.39906463     0.41200
H318        H  0.04323847  0.35525061  0.39929190     0.36100
C319        C  0.12293272  0.39222232  0.10046436    -0.25700
C320        C  0.11616342  0.36752560  0.08057312    -0.13700
C321        C  0.11535980  0.34256443  0.10291432     0.36900
C322        C  0.11404752  0.34419518  0.14314257    -0.25100
C323        C  0.11582676  0.36966422  0.16279736    -0.14400
C324        C  0.12413319  0.39328771  0.14088608     0.38000
N325        N  0.13575098  0.41761377  0.15924532    -0.88600
H326        H  0.12902441  0.41061057  0.08450019     0.19100
H327        H  0.11264283  0.32498597  0.15935962     0.19100
N328        N  0.11773854  0.31515025  0.08677572    -0.87600
H329        H  0.14119374  0.43287868  0.13908786     0.36500
H330        H  0.15478549  0.41174743  0.17281466     0.41600
H331        H  0.11993492  0.31524617  0.05710305     0.41200
H332        H  0.09923838  0.30404155  0.09373863     0.36100
C333        C  0.30744687  0.02747063  0.23145311    -0.25700
C334        C  0.30098640  0.00206363  0.24937547    -0.13700
C335        C  0.27449462  0.49959945  0.26788268     0.36900
C336        C  0.25465245  0.02054804  0.26766792    -0.25100
C337        C  0.26101541  0.04591319  0.24968016    -0.14400
C338        C  0.28793489  0.04960559  0.23166700     0.38000
N339        N  0.29643282  0.07551225  0.21421988    -0.88600
H340        H  0.32812193  0.03024095  0.21786918     0.19100
H341        H  0.23392081  0.01768410  0.28106267     0.19100
N342        N  0.26542914  0.47349078  0.28427040    -0.87600
H343        H  0.31472632  0.08259270  0.22860827     0.36500
H344        H  0.28102385  0.09089199  0.21815221     0.41600
H345        H  0.27982703  0.45761006  0.27813182     0.41200
H346        H  0.24644209  0.46757854  0.27052404     0.36100
C347        C  0.29757784  0.01800287  0.47775912    -0.25700
C348        C  0.29022608  0.99275743  0.49558122    -0.13700
C349        C  0.26275829  0.48934532  0.01366614     0.36900
C350        C  0.24356944  0.01217461  0.01594675    -0.25100
C351        C  0.25160704  0.03760400  0.49543380    -0.14400
C352        C  0.27846951  0.04054386  0.47752245     0.38000
N353        N  0.28635600  0.06655711  0.45996476    -0.88600
H354        H  0.31850820  0.02017927  0.46470761     0.19100
H355        H  0.22305260  0.01029032  0.03021299     0.19100
N356        N  0.25330118  0.46338252  0.03008873    -0.87600
H357        H  0.30689899  0.06532687  0.44820736     0.36500
H358        H  0.28731523  0.08158342  0.48160155     0.41600
H359        H  0.26794554  0.44745281  0.02523359     0.41200
H360        H  0.23467619  0.45734408  0.01557581     0.36100
C361        C  0.39018351  0.41336119  0.35327279    -0.25700
C362        C  0.36522809  0.42043870  0.33259630    -0.13700
C363        C  0.33919898  0.42171484  0.35405803     0.36900
C364        C  0.34017835  0.42165552  0.39435240    -0.25100
C365        C  0.36601642  0.41938814  0.41487165    -0.14400
C366        C  0.39052916  0.41184287  0.39363650     0.38000
N367        N  0.41539950  0.40116229  0.41262233    -0.88600
H368        H  0.40950865  0.40774581  0.33815601     0.19100
H369        H  0.32008362  0.42227259  0.40969445     0.19100
N370        N  0.31118636  0.42142450  0.33682158    -0.87600
H371        H  0.43306971  0.41314349  0.40427192     0.36500
H372        H  0.41873819  0.38084159  0.40291501     0.41600
H373        H  0.31162436  0.41898751  0.30726306     0.41200
H374        H  0.30118796  0.44034749  0.34300304     0.36100
C375        C  0.33911831  0.42332557  0.10310227    -0.25700
C376        C  0.36490188  0.42140144  0.08239457    -0.13700
C377        C  0.38977738  0.41430968  0.10349358     0.36900
C378        C  0.38949389  0.41550397  0.14391752    -0.25100
C379        C  0.36440506  0.42141963  0.16482932    -0.14400
C380        C  0.33829488  0.42258151  0.14346391     0.38000
N381        N  0.31040076  0.42134721  0.16088521    -0.88600
H382        H  0.31893960  0.42391656  0.08788195     0.19100
H383        H  0.40897096  0.41038372  0.15909016     0.19100
N384        N  0.41511179  0.40504104  0.08400639    -0.87600
H385        H  0.29987686  0.44009634  0.15524668     0.36500
H386        H  0.31116517  0.41860978  0.19042783     0.41600
H387        H  0.41018702  0.38614252  0.07064743     0.41200
H388        H  0.43157345  0.40087801  0.10351702     0.36100
C389        C  0.48777923  0.28124878  0.22622289    -0.25700
C390        C  0.49345554  0.25578362  0.24438808    -0.13700
C391        C  0.02123157  0.25127852  0.26102686     0.36900
C392        C  0.04169064  0.27265374  0.25957691    -0.25100
C393        C  0.03569573  0.29807716  0.24147891    -0.14400
C394        C  0.00861652  0.30188907  0.22407168     0.38000
N395        N  0.00110819  0.32751802  0.20567082    -0.88600
H396        H  0.46685348  0.28483022  0.21374358     0.19100
H397        H  0.06251731  0.26943690  0.27255971     0.19100
N398        N  0.02915822  0.22533763  0.27818618    -0.87600
H399        H  0.51462403  0.33128766  0.18296578     0.36500
H400        H  0.00431372  0.34379097  0.22511178     0.41600
H401        H  0.02535552  0.20940055  0.25842095     0.41200
H402        H  0.01630932  0.22204168  0.30218084     0.36100
C403        C  0.01427065  0.25413433  0.01963534    -0.25700
C404        C  0.98796195  0.25944199  0.49840479    -0.13700
C405        C  0.48383759  0.28506899  0.48182582     0.36900
C406        C  0.00584562  0.30555177  0.48204378    -0.25100
C407        C  0.03191474  0.29977259  0.50044311    -0.14400
C408        C  0.03618837  0.27399465  0.02079639     0.38000
N409        N  0.06226012  0.26694272  0.03996018    -0.88600
H410        H  0.01752645  0.23407239  0.03321170     0.19100
H411        H  0.00267410  0.32568621  0.46864813     0.19100
N412        N  0.45683337  0.29282311  0.46561037    -0.87600
H413        H  0.06455991  0.28015047  0.06345981     0.36500
H414        H  0.07933947  0.27018278  0.02112838     0.41600
H415        H  0.44103578  0.28996123  0.48648089     0.41200
H416        H  0.45232751  0.27960851  0.44260642     0.36100
C417        C  0.44960022  0.18007275  0.39462089    -0.25700
C418        C  0.42354098  0.17642477  0.41413839    -0.13700
C419        C  0.39965920  0.16754762  0.39204015     0.36900
C420        C  0.40089596  0.16876928  0.35174794    -0.25100
C421        C  0.42594898  0.17661455  0.33191239    -0.14400
C422        C  0.45144516  0.17896015  0.35435026     0.38000
N423        N  0.47972489  0.17804140  0.33829969    -0.88600
H424        H  0.46916094  0.18266047  0.41098708     0.19100
H425        H  0.38234419  0.16184777  0.33579695     0.19100
N426        N  0.37482784  0.15558233  0.41010435    -0.87600
H427        H  0.48994838  0.19689114  0.34441892     0.36500
H428        H  0.47971314  0.17494332  0.30878474     0.41600
H429        H  0.38122142  0.13710164  0.42344111     0.41200
H430        H  0.35925761  0.15013781  0.38984891     0.36100
C431        C  0.45037633  0.17829950  0.14426201    -0.25700
C432        C  0.42432055  0.17508796  0.16407369    -0.13700
C433        C  0.40031822  0.16622713  0.14224113     0.36900
C434        C  0.40139600  0.16716980  0.10187818    -0.25100
C435        C  0.42634462  0.17499053  0.08177495    -0.14400
C436        C  0.45197844  0.17753892  0.10391908     0.38000
N437        N  0.48015078  0.17768574  0.08730199    -0.88600
H438        H  0.47007719  0.18061164  0.16037236     0.19100
H439        H  0.38272755  0.16033033  0.08610596     0.19100
N440        N  0.37541959  0.15476157  0.16071981    -0.87600
H441        H  0.48973950  0.19697508  0.09294019     0.36500
H442        H  0.47988085  0.17468830  0.05779682     0.41600
H443        H  0.38162524  0.13635074  0.17439876     0.41200
H444        H  0.35972349  0.14928917  0.14065501     0.36100
C445        C  0.42488679  0.17820651  0.95824559     0.30700
C446        C  0.42387754  0.17748325  0.53732836     0.30700
C447        C  0.43713285  0.15211079  0.97728212    -0.05500
C448        C  0.44194439  0.20177078  0.97801373    -0.06300
C449        C  0.39546967  0.18157106  0.97782214    -0.06200
C450        C  0.43556864  0.15162757  0.51736156    -0.05500
C451        C  0.44024260  0.20163394  0.51774519    -0.06300
C452        C  0.39393784  0.18065961  0.51863123    -0.06200
C453        C  0.44844165  0.12728942  0.52890929    -0.31600
N454        N  0.45693946  0.11334731  0.49717471     0.14900
C455        C  0.45064975  0.12829524  0.96509616    -0.35200
H456        H  0.45539933  0.12265981  0.93574855     0.16900
C457        C  0.45616454  0.22430845  0.52924105    -0.30600
N458        N  0.46743666  0.23791222  0.99887624     0.13600
C459        C  0.45805753  0.22453106  0.96689052    -0.30600
C460        C  0.37101468  0.19681068  0.53027278    -0.30900
N461        N  0.35727473  0.20685800  0.49916181     0.14100
H462        H  0.36665217  0.20358337  0.55925691     0.16800
C463        C  0.37309982  0.19877508  0.96740969    -0.30900
H464        H  0.36910569  0.20698573  0.93897460     0.16800
H465        H  0.46353776  0.23032222  0.93782124     0.16800
H466        H  0.45270548  0.12089474  0.55814449     0.16800
H467        H  0.46087996  0.23041427  0.55840877     0.16800
C468        C  0.42450159  0.17723214  0.70786619     0.30700
C469        C  0.42590979  0.17807359  0.78698865     0.30700
C470        C  0.43503372  0.15066645  0.72773452    -0.05500
C471        C  0.44343260  0.20010711  0.72628677    -0.06300
C472        C  0.39562390  0.18279450  0.72779029    -0.06200
C473        C  0.43602669  0.15122682  0.76755881    -0.05500
C474        C  0.44381615  0.20076236  0.76641378    -0.06300
C475        C  0.39605643  0.18273253  0.76821359    -0.06200
C476        C  0.44918567  0.12704567  0.77935076    -0.31600
N477        N  0.45565241  0.11170037  0.74789272     0.14900
C478        C  0.44696583  0.12581033  0.71617928    -0.31600
H479        H  0.45081074  0.11934716  0.68691835     0.16900
C480        C  0.46119712  0.22277747  0.77694180    -0.30600
N481        N  0.47207301  0.23473755  0.74476668     0.13600
C482        C  0.46086992  0.22159035  0.71372624    -0.30600
C483        C  0.37246623  0.19811098  0.77967696    -0.30900
N484        N  0.35793151  0.20688950  0.74832350     0.14100
H485        H  0.36778697  0.20489499  0.80856150     0.16800
C486        C  0.37264946  0.19908793  0.71684117    -0.30900
H487        H  0.36798517  0.20625232  0.68805514     0.16800
H488        H  0.46553236  0.22712681  0.68430263     0.16800
H489        H  0.45476057  0.12153156  0.80852572     0.16800
H490        H  0.46574666  0.22964097  0.80582618     0.16800
C491        C  0.36553817  0.42127756  0.95894206     0.30700
C492        C  0.36533449  0.42284979  0.53807170     0.30700
C493        C  0.39154085  0.43502477  0.97850268    -0.05500
C494        C  0.34068239  0.43766389  0.97759496    -0.06300
C495        C  0.36362764  0.39277273  0.97906150    -0.06200
C496        C  0.39276747  0.43375494  0.51856663    -0.05500
C497        C  0.34253223  0.44066870  0.51776255    -0.06300
C498        C  0.36070305  0.39415607  0.51980869    -0.06200
C499        C  0.41356540  0.45266994  0.52949099    -0.31600
N500        N  0.42782995  0.46130902  0.99836180     0.14900
C501        C  0.41449227  0.45109568  0.96682692    -0.31600
H502        H  0.42020045  0.45637069  0.93764884     0.16900
C503        C  0.32337429  0.46100092  0.52833271    -0.30600
N504        N  0.31049575  0.47055695  0.99658883     0.13600
C505        C  0.32263769  0.45868200  0.96546324    -0.30600
C506        C  0.34383287  0.37208263  0.53164035    -0.30900
N507        N  0.33846286  0.35616263  0.99968566     0.14100
H508        H  0.33615354  0.36840231  0.56049516     0.16800
C509        C  0.34846845  0.36933824  0.96810174    -0.30900
H510        H  0.34192691  0.36436244  0.93910135     0.16800
H511        H  0.31953897  0.46595223  0.93637942     0.16800
H512        H  0.41755621  0.46015695  0.55827829     0.16800
H513        H  0.31889188  0.46816842  0.55708825     0.16800
C514        C  0.36664800  0.42230129  0.70873994     0.30700
C515        C  0.36709209  0.42199890  0.78772731     0.30700
C516        C  0.39647406  0.42632522  0.72757339    -0.05500
C517        C  0.35004045  0.44588568  0.72835528    -0.06300
C518        C  0.35529260  0.39595896  0.72829439    -0.06200
C519        C  0.39687780  0.42570000  0.76842658    -0.05500
C520        C  0.35041150  0.44587134  0.76840894    -0.06300
C521        C  0.35516916  0.39598396  0.76801659    -0.06200
C522        C  0.41906728  0.44329400  0.77943167    -0.31600
N523        N  0.43185906  0.45418531  0.74809549     0.14900
C524        C  0.41772462  0.44504311  0.71678846    -0.31600
H525        H  0.42085803  0.45354026  0.68832378     0.16900
C526        C  0.33470693  0.46849061  0.78012145    -0.30600
N527        N  0.32414547  0.48141714  0.74850994     0.13600
C528        C  0.33404867  0.46839529  0.71679052    -0.30600
C529        C  0.34080915  0.37235764  0.77970607    -0.30900
N530        N  0.33269339  0.35794629  0.74810039     0.14100
H531        H  0.33559552  0.36661320  0.80890978     0.16800
C532        C  0.34168975  0.37192357  0.71649403    -0.30900
H533        H  0.33690947  0.36601736  0.68722242     0.16800
H534        H  0.32914046  0.47443848  0.68762813     0.16800
H535        H  0.42324262  0.45055261  0.80827080     0.16800
H536        H  0.33034903  0.47464109  0.80934705     0.16800
O537        O  0.47357131  0.47266905  0.97609517    -0.77800
C538        C  0.02002132  0.02266778  0.89377302     0.83200
O539        O  0.07154989  0.47816038  0.51994963    -0.79000
O540        O  0.06670086  0.07392063  0.97679129    -0.80400
O541        O  0.46706819  0.06886367  0.52030125    -0.80200
O542        O  0.45306356  0.50001676  0.52077112    -0.78900
Zn543      Zn  0.01285322  0.48923818  0.96575285     1.55700
O544        O  0.99612289  0.08616361  0.97346607    -0.80300
Cd545      Cd  0.48426546  0.02966589  0.52928547     1.59700
Cd546      Cd  0.05368044  0.01691557  0.52995945     1.59600
O547        O  0.49496077  0.02716271  0.58539348    -0.80300
O548        O  0.01971546  0.02202766  0.99771553    -1.90800
Cd549      Cd  0.02704518  0.05606553  0.96646946     1.59900
O550        O  0.04168765  0.01802327  0.58572168    -0.80200
O551        O  0.02576063  0.04537081  0.91070549    -0.78900
C552        C  0.06547262  0.45796658  0.99633609     0.83700
C553        C  0.45279591  0.47867885  0.99825861     0.83300
O554        O  0.01423448  0.50031211  0.91088903    -0.77800
C555        C  0.47366129  0.08849790  0.49730716     0.84100
O556        O  0.04377153  0.45972999  0.97414138    -0.77900
C557        C  0.01822818  0.02268864  0.60291779     0.84300
C558        C  0.08686904  0.06801672  0.99998445     0.84600
O559        O  0.08438969  0.04811146  0.52250204    -0.80300
O560        O  0.04460160  0.46045332  0.77200069    -0.77800
C561        C  0.02006019  0.02278018  0.85244006     0.83200
O562        O  0.45413980  0.49496919  0.72586104    -0.79000
O563        O  0.99579011  0.08663181  0.76948736    -0.80400
O564        O  0.08525893  0.04650395  0.72411248    -0.80200
O565        O  0.07149805  0.47818476  0.72530936    -0.78900
Zn566      Zn  0.01353992  0.48924331  0.77999991     1.55700
O567        O  0.06808454  0.07330363  0.77061288    -0.80300
Cd568      Cd  0.05393163  0.01657257  0.71651545     1.59700
Cd569      Cd  0.48383032  0.02749305  0.71784525     1.59600
O570        O  0.04195301  0.01803333  0.66105641    -0.80300
O571        O  0.01961257  0.02224464  0.74908556    -1.90800
Cd572      Cd  0.02704194  0.05670291  0.77925095     1.59900
O573        O  0.49482577  0.02605786  0.66145686    -0.80200
O574        O  0.02460277  0.04579829  0.83536745    -0.78900
C575        C  0.45490289  0.47400451  0.74837117     0.83700
C576        C  0.06562301  0.45877392  0.74890438     0.83300
O577        O  0.01493613  0.50016469  0.83433778    -0.77800
C578        C  0.08798213  0.06678181  0.74727526     0.84100
O579        O  0.47600775  0.46983211  0.77077658    -0.77900
C580        C  0.01828813  0.02234958  0.64418701     0.84300
C581        C  0.47269815  0.08693928  0.74800640     0.84600
O582        O  0.46527472  0.06637147  0.72704061    -0.80300
C583        C  0.11097699  0.36699482  0.95711812     0.30700
C584        C  0.11189095  0.36832978  0.53621759     0.30700
C585        C  0.10653869  0.39575316  0.97590214    -0.05500
C586        C  0.08880911  0.34870051  0.97828545    -0.06300
C587        C  0.13910103  0.35660226  0.97574823    -0.06200
C588        C  0.10636054  0.39672098  0.51644570    -0.05500
C589        C  0.08802253  0.35030673  0.51785090    -0.06300
C590        C  0.13900597  0.35824183  0.51573706    -0.06200
C591        C  0.09099475  0.41993249  0.52772072    -0.31600
N592        N  0.08280063  0.43330176  0.99582658     0.14900
C593        C  0.09047247  0.41851145  0.96447390    -0.31600
H594        H  0.08332650  0.42299173  0.93559189     0.16900
C595        C  0.06644885  0.33288180  0.53056343    -0.30600
N596        N  0.05523585  0.32019683  0.00113501     0.13600
C597        C  0.06810491  0.32935196  0.96861528    -0.30600
C598        C  0.16372685  0.34502663  0.52724887    -0.30900
N599        N  0.17858259  0.33469741  0.99554124     0.14100
H600        H  0.17030982  0.34107502  0.55653056     0.16800
C601        C  0.16250411  0.34102190  0.96422404    -0.30900
H602        H  0.16697886  0.33384801  0.93545709     0.16800
H603        H  0.06325548  0.32165405  0.94022172     0.16800
H604        H  0.08467567  0.42504157  0.55670112     0.16800
H605        H  0.06008498  0.32944036  0.55999315     0.16800
C606        C  0.11301651  0.37024912  0.70713239     0.30700
C607        C  0.11195046  0.36867946  0.78622259     0.30700
C608        C  0.10857064  0.39844607  0.72753862    -0.05500
C609        C  0.08888496  0.35251880  0.72536392    -0.06300
C610        C  0.13970615  0.35847133  0.72688331    -0.06200
C611        C  0.10810817  0.39755192  0.76796236    -0.05500
C612        C  0.08868656  0.35127342  0.76549766    -0.06300
C613        C  0.13918999  0.35758193  0.76682949    -0.06200
C614        C  0.09170957  0.41978492  0.78000649    -0.31600
N615        N  0.08315374  0.43445032  0.74897529     0.14900
C616        C  0.09221028  0.42117526  0.71715468    -0.31600
H617        H  0.08495602  0.42618367  0.68847166     0.16900
C618        C  0.06834198  0.33168428  0.77562862    -0.30600
N619        N  0.05543826  0.32212833  0.74328989     0.13600
C620        C  0.06778935  0.33459460  0.71248916    -0.30600
C621        C  0.16192342  0.34128640  0.77820060    -0.30900
N622        N  0.17639207  0.33301438  0.74663846     0.14100
H623        H  0.16672312  0.33450291  0.80711131     0.16800
C624        C  0.16278660  0.34284165  0.71505429    -0.30900
H625        H  0.16864686  0.33810592  0.68577026     0.16800
H626        H  0.06261495  0.32990125  0.68295401     0.16800
H627        H  0.08470633  0.42375634  0.80905877     0.16800
H628        H  0.06378508  0.32411950  0.80422675     0.16800
C629        C  0.18164255  0.11278502  0.53805908     0.30700
C630        C  0.18024378  0.11337590  0.95921048     0.30700
C631        C  0.18893512  0.14048569  0.51814206    -0.05500
C632        C  0.20136196  0.09198910  0.51777134    -0.06300
C633        C  0.15255569  0.10503901  0.51953245    -0.06200
C634        C  0.18859522  0.14123731  0.97860067    -0.05500
C635        C  0.20079096  0.09269790  0.97863758    -0.06300
C636        C  0.15127914  0.10705784  0.97952825    -0.06200
C637        C  0.19788156  0.16752476  0.96758340    -0.31600
N638        N  0.20578153  0.18188478  0.99940472     0.14900
C639        C  0.19951897  0.16577093  0.53002627    -0.31600
H640        H  0.20505329  0.17142218  0.55915891     0.16900
C641        C  0.21993016  0.07287256  0.96642236    -0.30600
N642        N  0.23071535  0.05971345  0.99769464     0.13600
C643        C  0.21971082  0.07095735  0.52839821    -0.30600
C644        C  0.12507547  0.09591386  0.96889958    -0.30900
N645        N  0.11200020  0.08535215  0.00045885     0.14100
H646        H  0.11692632  0.09354167  0.94005769     0.16800
C647        C  0.12812409  0.09124153  0.53158316    -0.30900
H648        H  0.12365062  0.08390721  0.56032652     0.16800
H649        H  0.22396486  0.06374578  0.55723782     0.16800
H650        H  0.20043799  0.17527809  0.93866180     0.16800
H651        H  0.22511989  0.06786757  0.93699542     0.16800
C652        C  0.18266387  0.11261833  0.78835423     0.30700
C653        C  0.18292154  0.11259011  0.70896817     0.30700
C654        C  0.18514958  0.14134323  0.76863568    -0.05500
C655        C  0.20645267  0.09581314  0.76884407    -0.06300
C656        C  0.15526923  0.10106682  0.76851297    -0.06200
C657        C  0.18568238  0.14115380  0.72848912    -0.05500
C658        C  0.20680818  0.09569094  0.72882496    -0.06300
C659        C  0.15604517  0.10004967  0.72838502    -0.06200
C660        C  0.19601204  0.16672464  0.71678248    -0.31600
N661        N  0.20099592  0.18252671  0.74828550     0.14900
C662        C  0.19375786  0.16758393  0.77984112    -0.31600
H663        H  0.19678717  0.17476416  0.80886648     0.16900
C664        C  0.22851078  0.07780363  0.71815019    -0.30600
N665        N  0.24160871  0.06816889  0.75028619     0.13600
C666        C  0.22800627  0.07857940  0.78136340    -0.30600
C667        C  0.13123801  0.08690616  0.71649948    -0.30900
N668        N  0.11449554  0.08201469  0.74753966     0.14100
H669        H  0.12569443  0.08120313  0.68740026     0.16800
C670        C  0.12854886  0.09103977  0.77926013    -0.30900
H671        H  0.11989145  0.08975659  0.80794362     0.16800
H672        H  0.23299036  0.07338254  0.81084069     0.16800
H673        H  0.20258194  0.17218306  0.68796412     0.16800
H674        H  0.23371385  0.07106985  0.68942526     0.16800
O675        O  0.24515937  0.26679224  0.91254652    -0.77800
C676        C  0.22259324  0.20689247  0.99969947     0.83200
O677        O  0.22273520  0.32431803  0.51898437    -0.79000
O678        O  0.27093679  0.24837828  0.58655944    -0.80400
O679        O  0.33282177  0.24417188  0.97504659    -0.80200
O680        O  0.29237132  0.27460577  0.91045977    -0.78900
Zn681      Zn  0.23419292  0.26517247  0.96739532     1.55700
O682        O  0.31282119  0.21988065  0.52297451    -0.80300
Cd683      Cd  0.30350150  0.27565611  0.96656296     1.59700
Cd684      Cd  0.26168299  0.30529162  0.53027489     1.59600
O685        O  0.32367098  0.31318748  0.97620434    -0.80300
O686        O  0.26838383  0.27112189  0.99833095    -1.90800
Cd687      Cd  0.27323437  0.23787572  0.53082257     1.59900
O688        O  0.29527231  0.33345685  0.52318250    -0.80200
O689        O  0.24217758  0.20834906  0.52184147    -0.78900
C690        C  0.20375845  0.31762473  0.99627318     0.83700
C691        C  0.26834171  0.27069875  0.89431451     0.83300
O692        O  0.21647447  0.22681075  0.97687439    -0.77800
C693        C  0.33306121  0.22492746  0.49959122     0.84100
O694        O  0.20466170  0.29573942  0.97560317    -0.77900
C695        C  0.31665926  0.33385422  0.50046570     0.84300
C696        C  0.26580373  0.27105889  0.60362575     0.84600
O697        O  0.26132518  0.29401350  0.58656331    -0.80300
O698        O  0.21333584  0.22694001  0.72609569    -0.77800
C699        C  0.20132900  0.31586872  0.74715432     0.83200
O700        O  0.29006886  0.27445448  0.66098736    -0.79000
O701        O  0.29315457  0.33306438  0.77039341    -0.80400
O702        O  0.27131260  0.24751550  0.83629600    -0.80200
O703        O  0.24021011  0.20742655  0.77155583    -0.78900
Zn704      Zn  0.23194871  0.26458604  0.71681643     1.55700
O705        O  0.26312665  0.29342522  0.83602901    -0.80300
Cd706      Cd  0.27252926  0.23636878  0.78018261     1.59700
Cd707      Cd  0.30148821  0.27551045  0.71673309     1.59600
O708        O  0.31248029  0.21838536  0.77124353    -0.80300
O709        O  0.26621952  0.26997804  0.74789951    -1.90800
Cd710      Cd  0.26108502  0.30393886  0.77964581     1.59900
O711        O  0.33173079  0.24469853  0.72530366    -0.80200
O712        O  0.22157599  0.32193396  0.77021131    -0.78900
C713        C  0.26614890  0.27077877  0.64450090     0.83700
C714        C  0.21878447  0.20685657  0.74884757     0.83300
O715        O  0.20263237  0.29490199  0.72493931    -0.77800
C716        C  0.26744103  0.27053405  0.85329484     0.84100
O717        O  0.24281653  0.26654965  0.66221259    -0.77900
C718        C  0.33295902  0.22414981  0.74838142     0.84300
C719        C  0.31468685  0.33382680  0.74802459     0.84600
O720        O  0.32054387  0.31384690  0.72549129    -0.80300
C721        C  0.20297323  0.12691358  0.89507922    -0.25700
C722        C  0.18186768  0.11159048  0.91489444    -0.13700
C723        C  0.16820983  0.09022763  0.89343665     0.36900
C724        C  0.16868078  0.09127797  0.85300921    -0.25100
C725        C  0.18460137  0.11149130  0.83278428    -0.14400
C726        C  0.20556112  0.12611023  0.85488789     0.38000
N727        N  0.23160150  0.13724478  0.83889757    -0.88600
H728        H  0.21939766  0.13779779  0.91099551     0.19100
H729        H  0.15857389  0.07452450  0.83745898     0.19100
N730        N  0.15603158  0.06628571  0.91219717    -0.87600
H731        H  0.23271175  0.15857449  0.84464136     0.36500
H732        H  0.23317678  0.13421776  0.80945548     0.41600
H733        H  0.17265044  0.05525718  0.92519787     0.41200
H734        H  0.14662495  0.05275189  0.89233827     0.36100
C735        C  0.15833563  0.12117245  0.60319088    -0.25700
C736        C  0.18323661  0.11451557  0.58236980    -0.13700
C737        C  0.20937413  0.11404798  0.60362966     0.36900
C738        C  0.20858842  0.11278831  0.64394516    -0.25100
C739        C  0.18278794  0.11434591  0.66463337    -0.14400
C740        C  0.15814690  0.12242776  0.64361645     0.38000
N741        N  0.13339854  0.13311302  0.66306322    -0.88600
H742        H  0.13910290  0.12696022  0.58791057     0.19100
H743        H  0.22876338  0.11266228  0.65913544     0.19100
N744        N  0.23709469  0.11743077  0.58628622    -0.87600
H745        H  0.11716093  0.13802391  0.64355001     0.36500
H746        H  0.13936605  0.15179347  0.67624855     0.41600
H747        H  0.23603467  0.12191035  0.55710437     0.41200
H748        H  0.24870267  0.09909959  0.59023855     0.36100
C749        C  0.13579879  0.37424386  0.89272456    -0.25700
C750        C  0.11037021  0.36803988  0.91276501    -0.13700
C751        C  0.08467509  0.36834085  0.89103603     0.36900
C752        C  0.08573277  0.36793317  0.85063017    -0.25100
C753        C  0.11184191  0.36929010  0.83056267    -0.14400
C754        C  0.13661583  0.37602531  0.85236200     0.38000
N755        N  0.16218055  0.38596936  0.83383566    -0.88600
H756        H  0.15504659  0.37915869  0.90864718     0.19100
H757        H  0.06573313  0.36795097  0.83494922     0.19100
N758        N  0.05744321  0.37119753  0.90939789    -0.87600
H759        H  0.17837288  0.38993595  0.85385694     0.36500
H760        H  0.15734530  0.40502029  0.82084628     0.41600
H761        H  0.04842602  0.38997496  0.90026556     0.41200
H762        H  0.04405056  0.35518313  0.89969480     0.36100
C763        C  0.12199927  0.39233689  0.60028951    -0.25700
C764        C  0.11453988  0.36773010  0.58058504    -0.13700
C765        C  0.11336219  0.34285312  0.60307778     0.36900
C766        C  0.11246837  0.34460636  0.64331532    -0.25100
C767        C  0.11512723  0.37005961  0.66284101    -0.14400
C768        C  0.12362378  0.39347791  0.64068050     0.38000
N769        N  0.13585113  0.41764468  0.65873322    -0.88600
H770        H  0.12831099  0.41057940  0.58415540     0.19100
H771        H  0.11078528  0.32546289  0.65963984     0.19100
N772        N  0.11513872  0.31535791  0.58709361    -0.87600
H773        H  0.14138166  0.43276352  0.63841549     0.36500
H774        H  0.15490357  0.41147869  0.67200416     0.41600
H775        H  0.11755611  0.31533079  0.55746514     0.41200
H776        H  0.09636347  0.30466277  0.59406980     0.36100
C777        C  0.31089488  0.03002033  0.73593700    -0.25700
C778        C  0.30374969  0.00374375  0.75078335    -0.13700
C779        C  0.27564969  0.49881887  0.76446098     0.36900
C780        C  0.25641050  0.02105507  0.76647952    -0.25100
C781        C  0.26337468  0.04720622  0.75131300    -0.14400
C782        C  0.29111768  0.05195985  0.73627823     0.38000
N783        N  0.30003343  0.07868397  0.72181430    -0.88600
H784        H  0.33216649  0.03352712  0.72448005     0.19100
H785        H  0.23507977  0.01746224  0.77769251     0.19100
N786        N  0.26625866  0.47227204  0.77908352    -0.87600
H787        H  0.31720013  0.08549963  0.73871354     0.36500
H788        H  0.28398794  0.09354433  0.72504949     0.41600
H789        H  0.28116646  0.45669815  0.77365220     0.41200
H790        H  0.24800278  0.46642931  0.76360901     0.36100
C791        C  0.29600930  0.01682130  0.97802538    -0.25700
C792        C  0.28892650  0.99185192  0.99677769    -0.13700
C793        C  0.26337575  0.49016842  0.51172345     0.36900
C794        C  0.24417360  0.01233549  0.51290560    -0.25100
C795        C  0.25064973  0.03706981  0.99722276    -0.14400
C796        C  0.27710331  0.03953411  0.97812990     0.38000
N797        N  0.28481673  0.06528551  0.95972473    -0.88600
H798        H  0.31659558  0.01866789  0.96395099     0.19100
H799        H  0.22330971  0.01009641  0.52613951     0.19100
N800        N  0.25403897  0.46416696  0.52812818    -0.87600
H801        H  0.30506046  0.06375143  0.94714897     0.36500
H802        H  0.28640820  0.08053057  0.98100932     0.41600
H803        H  0.26912540  0.44849492  0.52416467     0.41200
H804        H  0.23586351  0.45769179  0.51296358     0.36100
C805        C  0.39057111  0.41346764  0.85322681    -0.25700
C806        C  0.36568091  0.42009583  0.83210066    -0.13700
C807        C  0.33955603  0.42166128  0.85327682     0.36900
C808        C  0.34026972  0.42188344  0.89359249    -0.25100
C809        C  0.36593080  0.41965416  0.91457553    -0.14400
C810        C  0.39070077  0.41235567  0.89365607     0.38000
N811        N  0.41573634  0.40246993  0.91307276    -0.88600
H812        H  0.41005041  0.40788711  0.83845496     0.19100
H813        H  0.32002112  0.42246037  0.90853209     0.19100
N814        N  0.31164516  0.42143510  0.83572339    -0.87600
H815        H  0.43317387  0.41468059  0.90446266     0.36500
H816        H  0.41956742  0.38210254  0.90391078     0.41600
H817        H  0.31223268  0.41892027  0.80618879     0.41200
H818        H  0.30171244  0.44043944  0.84162596     0.36100
C819        C  0.33983940  0.42364811  0.60287456    -0.25700
C820        C  0.36564230  0.42180420  0.58228607    -0.13700
C821        C  0.39049175  0.41432351  0.60323763     0.36900
C822        C  0.39014966  0.41501477  0.64358188    -0.25100
C823        C  0.36509549  0.42089847  0.66447019    -0.14400
C824        C  0.33898371  0.42249072  0.64317511     0.38000
N825        N  0.31107874  0.42136908  0.66058800    -0.88600
H826        H  0.31972418  0.42467973  0.58752628     0.19100
H827        H  0.40954719  0.40951123  0.65867700     0.19100
N828        N  0.41581160  0.40503771  0.58371811    -0.87600
H829        H  0.30069167  0.44021710  0.65512035     0.36500
H830        H  0.31182025  0.41852277  0.69011260     0.41600
H831        H  0.41074695  0.38633095  0.56994107     0.41200
H832        H  0.43221305  0.40055637  0.60318646     0.36100
C833        C  0.48668946  0.28218034  0.72645405    -0.25700
C834        C  0.49328152  0.25655827  0.74365224    -0.13700
C835        C  0.02077974  0.25251365  0.75760039     0.36900
C836        C  0.04113822  0.27397474  0.75685146    -0.25100
C837        C  0.03433574  0.30026478  0.74199832    -0.14400
C838        C  0.00658054  0.30497021  0.72721135     0.38000
N839        N  0.99841971  0.33160315  0.71236858    -0.88600
H840        H  0.46555837  0.28539630  0.71441214     0.19100
H841        H  0.06249292  0.27016808  0.76782301     0.19100
N842        N  0.02927938  0.22578572  0.77170409    -0.87600
H843        H  0.51187940  0.33417791  0.68542518     0.36500
H844        H  0.00216488  0.34657662  0.73355085     0.41600
H845        H  0.02492124  0.21092700  0.75058635     0.41200
H846        H  0.01710686  0.22111692  0.79590503     0.36100
C847        C  0.01406791  0.25366562  0.51653739    -0.25700
C848        C  0.98837346  0.25958818  0.00077515    -0.13700
C849        C  0.48471570  0.28556490  0.98206911     0.36900
C850        C  0.00644403  0.30558385  0.98377950    -0.25100
C851        C  0.03244274  0.29999584  0.00252543    -0.14400
C852        C  0.03599872  0.27348460  0.51770811     0.38000
N853        N  0.06241002  0.26615579  0.53582162    -0.88600
H854        H  0.01742036  0.23343885  0.52959777     0.19100
H855        H  0.00338565  0.32555171  0.96987115     0.19100
N856        N  0.45817495  0.29255409  0.96390753    -0.87600
H857        H  0.06526643  0.27912865  0.55942786     0.36500
H858        H  0.07912151  0.26957568  0.51642132     0.41600
H859        H  0.44171746  0.28991974  0.98390705     0.41200
H860        H  0.45462510  0.27887744  0.94114692     0.36100
C861        C  0.45098524  0.18081338  0.89401940    -0.25700
C862        C  0.42510180  0.17681427  0.91386739    -0.13700
C863        C  0.40130090  0.16737517  0.89195881     0.36900
C864        C  0.40221985  0.16863944  0.85159635    -0.25100
C865        C  0.42706698  0.17665164  0.83146153    -0.14400
C866        C  0.45264958  0.17931484  0.85369560     0.38000
N867        N  0.48084812  0.17818606  0.83740360    -0.88600
H868        H  0.47058728  0.18376470  0.91017376     0.19100
H869        H  0.38362015  0.16163117  0.83579406     0.19100
N870        N  0.37688586  0.15483815  0.91030702    -0.87600
H871        H  0.49110835  0.19713025  0.84284438     0.36500
H872        H  0.48066549  0.17457779  0.80800746     0.41600
H873        H  0.38384943  0.13656495  0.92368357     0.41200
H874        H  0.36140121  0.14890592  0.89019928     0.36100
C875        C  0.45018151  0.17885151  0.64342573    -0.25700
C876        C  0.42442315  0.17519681  0.66369294    -0.13700
C877        C  0.40029390  0.16601239  0.64239012     0.36900
C878        C  0.40077225  0.16731638  0.60206271    -0.25100
C879        C  0.42540837  0.17547643  0.58156618    -0.14400
C880        C  0.45130330  0.17820241  0.60312078     0.38000
N881        N  0.47929939  0.17853059  0.58596561    -0.88600
H882        H  0.47004729  0.18130956  0.65912132     0.19100
H883        H  0.38195755  0.16044555  0.58661516     0.19100
N884        N  0.37590743  0.15393795  0.66137193    -0.87600
H885        H  0.48886256  0.19785993  0.59144470     0.36500
H886        H  0.47881682  0.17543637  0.55649428     0.41600
H887        H  0.38270141  0.13558528  0.67468234     0.41200
H888        H  0.36006635  0.14824232  0.64162646     0.36100
C889        C  0.42321773  0.67796808  0.45817084     0.30700
C890        C  0.42509342  0.67693359  0.03703292     0.30700
C891        C  0.43583739  0.65211329  0.47730799    -0.05500
C892        C  0.44005229  0.70172600  0.47766420    -0.06300
C893        C  0.39378421  0.68111354  0.47790406    -0.06200
C894        C  0.43729171  0.65150434  0.01659389    -0.05500
C895        C  0.44136060  0.70152190  0.01839171    -0.06300
C896        C  0.39535724  0.67999669  0.01777295    -0.06200
C897        C  0.44957042  0.62680202  0.02769784    -0.31600
N898        N  0.45811545  0.61316087  0.99573988     0.14900
C899        C  0.44982540  0.62854645  0.46525030    -0.35200
H900        H  0.45467728  0.62290148  0.43593803     0.16900
C901        C  0.45663100  0.72434609  0.03087405    -0.30600
N902        N  0.46658735  0.73716979  0.49804795     0.13600
C903        C  0.45676262  0.72393881  0.46624224    -0.30600
C904        C  0.37204690  0.69561824  0.02933310    -0.30900
N905        N  0.35832312  0.70563952  0.99820770     0.14100
H906        H  0.36742920  0.70220376  0.05832613     0.16800
C907        C  0.37139099  0.69837070  0.46769906    -0.30900
H908        H  0.36740635  0.70674814  0.43935316     0.16800
H909        H  0.46258909  0.72931305  0.43714045     0.16800
H910        H  0.45324969  0.61984127  0.05682981     0.16800
H911        H  0.46100007  0.73003175  0.06029966     0.16800
C912        C  0.42345533  0.67667750  0.20775506     0.30700
C913        C  0.42471003  0.67738335  0.28688960     0.30700
C914        C  0.43500409  0.65052856  0.22757746    -0.05500
C915        C  0.44144010  0.70022703  0.22634471    -0.06300
C916        C  0.39429082  0.68109007  0.22757384    -0.06200
C917        C  0.43592037  0.65101044  0.26738544    -0.05500
C918        C  0.44174481  0.70077405  0.26649149    -0.06300
C919        C  0.39470532  0.68098958  0.26808959    -0.06200
C920        C  0.44963445  0.62710650  0.27910815    -0.31600
N921        N  0.45647076  0.61201519  0.24757211     0.14900
C922        C  0.44751867  0.62599589  0.21591792    -0.31600
H923        H  0.45135061  0.61957319  0.18663706     0.16900
C924        C  0.45892169  0.72288304  0.27721843    -0.30600
N925        N  0.46972082  0.73508107  0.24516038     0.13600
C926        C  0.45873235  0.72190129  0.21397932    -0.30600
C927        C  0.37122575  0.69654383  0.27953188    -0.30900
N928        N  0.35672723  0.70543239  0.24828305     0.14100
H929        H  0.36680423  0.70364895  0.30834304     0.16800
C930        C  0.37136340  0.69754744  0.21678852    -0.30900
H931        H  0.36690137  0.70503913  0.18810527     0.16800
H932        H  0.46374710  0.72727591  0.18460229     0.16800
H933        H  0.45511172  0.62151540  0.30828971     0.16800
H934        H  0.46376473  0.72937240  0.30618427     0.16800
C935        C  0.36570493  0.92078618  0.45948876     0.30700
C936        C  0.36441716  0.92218755  0.03859108     0.30700
C937        C  0.39241812  0.93341738  0.47878025    -0.05500
C938        C  0.34177550  0.93843281  0.47808050    -0.06300
C939        C  0.36245605  0.89255811  0.47996851    -0.06200
C940        C  0.39034181  0.93622548  0.01918921    -0.05500
C941        C  0.33951506  0.93734003  0.01851000    -0.06300
C942        C  0.36315119  0.89322554  0.02010468    -0.06200
C943        C  0.41238292  0.95353154  0.03073313    -0.31600
N944        N  0.42779663  0.96107096  0.49816303     0.14900
C945        C  0.41476622  0.95020969  0.46682605    -0.31600
H946        H  0.42000937  0.95575503  0.43758228     0.16900
C947        C  0.32100686  0.95821606  0.02927234    -0.30600
N948        N  0.31079411  0.97068782  0.49663512     0.13600
C949        C  0.32309599  0.95876873  0.46563353    -0.30600
C950        C  0.34690532  0.87054806  0.03143490    -0.30900
N951        N  0.33686110  0.85644787  0.50104489     0.14100
H952        H  0.33872620  0.86683872  0.06003798     0.16800
C953        C  0.34693561  0.86933106  0.46926685    -0.30900
H954        H  0.34043549  0.86416389  0.44031511     0.16800
H955        H  0.31952828  0.96547939  0.43639381     0.16800
H956        H  0.41735923  0.95971666  0.05983067     0.16800
H957        H  0.31751294  0.96597275  0.05798719     0.16800
C958        C  0.36614446  0.92228843  0.20943772     0.30700
C959        C  0.36654405  0.92200627  0.28845690     0.30700
C960        C  0.39586983  0.92708188  0.22832062    -0.05500
C961        C  0.34882368  0.94542941  0.22908034    -0.06300
C962        C  0.35554395  0.89566468  0.22903993    -0.06200
C963        C  0.39622575  0.92649239  0.26915429    -0.05500
C964        C  0.34918700  0.94541228  0.26914263    -0.06300
C965        C  0.35538852  0.89571247  0.26875831    -0.06200
C966        C  0.41814451  0.94437908  0.28025340    -0.31600
N967        N  0.43091522  0.95541188  0.24895691     0.14900
C968        C  0.41692813  0.94605473  0.21758344    -0.31600
H969        H  0.42015340  0.95438317  0.18904741     0.16900
C970        C  0.33294065  0.96766043  0.28089548    -0.30600
N971        N  0.32197250  0.98033705  0.24933391     0.13600
C972        C  0.33221697  0.96756237  0.21758201    -0.30600
C973        C  0.34152782  0.87184318  0.28048973    -0.30900
N974        N  0.33376481  0.85724941  0.24890635     0.14100
H975        H  0.33623121  0.86612661  0.30968017     0.16800
C976        C  0.34245997  0.87136000  0.21727838    -0.30900
H977        H  0.33763709  0.86541915  0.18803278     0.16800
H978        H  0.32725548  0.97357674  0.18842341     0.16800
H979        H  0.42225633  0.95153674  0.30915808     0.16800
H980        H  0.32863449  0.97380266  0.31013938     0.16800
O981        O  0.47324523  0.97323326  0.47584835    -0.77800
C982        C  0.01992137  0.52432750  0.39331114     0.83200
O983        O  0.07136142  0.97651437  0.02078361    -0.79000
O984        O  0.06614147  0.57551021  0.47604015    -0.80400
O985        O  0.46774613  0.56858040  0.01871358    -0.80200
O986        O  0.45336259  0.99989386  0.02213262    -0.78900
Zn987      Zn  0.01241152  0.99018394  0.46689841     1.55700
O988        O  0.99565521  0.58744929  0.47388653    -0.80300
Cd989      Cd  0.48494186  0.52958417  0.02857537     1.59700
Cd990      Cd  0.05443874  0.51660507  0.02895827     1.59600
O991        O  0.49563893  0.52793837  0.08479425    -0.80300
O992        O  0.01947687  0.52345867  0.49715838    -1.90800
Cd993      Cd  0.02654753  0.55759959  0.46604806     1.59900
O994        O  0.04229529  0.51789903  0.08488052    -0.80200
O995        O  0.02514048  0.54721419  0.41009368    -0.78900
C996        C  0.06434207  0.95820661  0.49785922     0.83700
C997        C  0.45237350  0.97893817  0.49795351     0.83300
O998        O  0.01410822  0.00132430  0.41225254    -0.77800
C999        C  0.47445329  0.58810697  0.99562428     0.84100
O1000       O  0.04279006  0.96035335  0.47553416    -0.77900
C1001       C  0.01879792  0.52269543  0.10197180     0.84300
C1002       C  0.08634433  0.56947485  0.49908763     0.84600
O1003       O  0.08520690  0.54789516  0.02142813    -0.80300
O1004       O  0.04373618  0.96029059  0.27393411    -0.77800
C1005       C  0.02007088  0.52405936  0.35199200     0.83200
O1006       O  0.45386873  0.99586312  0.22636904    -0.79000
O1007       O  0.99532804  0.58607502  0.26823455    -0.80400
O1008       O  0.08552537  0.54605265  0.22376432    -0.80200
O1009       O  0.07014832  0.97712353  0.22615668    -0.78900
Zn1010     Zn  0.01297183  0.98939747  0.28176505     1.55700
O1011       O  0.06747120  0.57385230  0.26850846    -0.80300
Cd1012     Cd  0.05383665  0.51629094  0.21598416     1.59700
Cd1013     Cd  0.48402208  0.52769812  0.21739695     1.59600
O1014       O  0.04223049  0.51822007  0.16038593    -0.80300
O1015       O  0.01945332  0.52199152  0.24846695    -1.90800
Cd1016     Cd  0.02687635  0.55674635  0.27801406     1.59900
O1017       O  0.49524595  0.52660992  0.16095275    -0.80200
O1018       O  0.02483129  0.54683488  0.33446475    -0.78900
C1019       C  0.45414533  0.97512270  0.24931720     0.83700
C1020       C  0.06425378  0.95797275  0.25015616     0.83300
O1021       O  0.01449699  0.00088840  0.33593285    -0.77800
C1022       C  0.08770443  0.56699426  0.24592440     0.84100
O1023       O  0.47500888  0.97104098  0.27218260    -0.77900
C1024       C  0.01863647  0.52237895  0.14329261     0.84300
C1025       C  0.47354245  0.58731741  0.24756779     0.84600
O1026       O  0.46577103  0.56659117  0.22711787    -0.80300
C1027       C  0.11002970  0.86711896  0.45799289     0.30700
C1028       C  0.11337315  0.86705043  0.03725939     0.30700
C1029       C  0.10415529  0.89536227  0.47735487    -0.05500
C1030       C  0.08862826  0.84769577  0.47841728    -0.06300
C1031       C  0.13841267  0.85770314  0.47679293    -0.06200
C1032       C  0.10625055  0.89513425  0.01753930    -0.05500
C1033       C  0.09045943  0.84794807  0.01891024    -0.06300
C1034       C  0.14099617  0.85832793  0.01663156    -0.06200
C1035       C  0.09069608  0.91823815  0.02881666    -0.31600
N1036       N  0.08112282  0.93319061  0.49744257     0.14900
C1037       C  0.08874540  0.91849715  0.46594264    -0.31600
H1038       H  0.08215176  0.92343557  0.43696191     0.16900
C1039       C  0.06922267  0.83023045  0.03174134    -0.30600
N1040       N  0.05557057  0.81832128  0.49969881     0.13600
C1041       C  0.06868631  0.82798461  0.46774622    -0.30600
C1042       C  0.16584498  0.84516400  0.02789331    -0.30900
N1043       N  0.17742527  0.83511506  0.49665361     0.14100
H1044       H  0.17242228  0.84094314  0.05710489     0.16800
C1045       C  0.16169064  0.84198401  0.46528173    -0.30900
H1046       H  0.16619502  0.83493882  0.43646224     0.16800
H1047       H  0.06431084  0.82058619  0.43906833     0.16800
H1048       H  0.08447405  0.92343869  0.05779836     0.16800
H1049       H  0.06276972  0.82686122  0.06115652     0.16800
C1050       C  0.11264366  0.86918518  0.20813546     0.30700
C1051       C  0.11158381  0.86779638  0.28727557     0.30700
C1052       C  0.10627234  0.89705605  0.22846345    -0.05500
C1053       C  0.08975266  0.84998138  0.22644609    -0.06300
C1054       C  0.14007992  0.85924254  0.22801469    -0.06200
C1055       C  0.10591489  0.89623954  0.26874702    -0.05500
C1056       C  0.08950459  0.84887795  0.26659287    -0.06300
C1057       C  0.13959765  0.85842488  0.26802089    -0.06200
C1058       C  0.08982888  0.91857897  0.28101373    -0.31600
N1059       N  0.08117453  0.93322655  0.24998356     0.14900
C1060       C  0.08991757  0.91978597  0.21806102    -0.31600
H1061       H  0.08279343  0.92494651  0.18937443     0.16900
C1062       C  0.06939024  0.82901928  0.27677414    -0.30600
N1063       N  0.05679308  0.81904409  0.24441705     0.13600
C1064       C  0.06909081  0.83156646  0.21360143    -0.30600
C1065       C  0.16271205  0.84259025  0.27937346    -0.30900
N1066       N  0.17736725  0.83461298  0.24780588     0.14100
H1067       H  0.16745704  0.83565913  0.30823799     0.16800
C1068       C  0.16348586  0.84406688  0.21625230    -0.30900
H1069       H  0.16919055  0.83906012  0.18700039     0.16800
H1070       H  0.06386158  0.82695824  0.18405692     0.16800
H1071       H  0.08338551  0.92285941  0.31021456     0.16800
H1072       H  0.06444409  0.82192518  0.30548131     0.16800
C1073       C  0.18167909  0.61337815  0.03720423     0.30700
C1074       C  0.18014936  0.61375980  0.45781796     0.30700
C1075       C  0.18993409  0.64072753  0.01710883    -0.05500
C1076       C  0.20084452  0.59189717  0.01747797    -0.06300
C1077       C  0.15248718  0.60633473  0.01849526    -0.06200
C1078       C  0.18825635  0.64155729  0.47745914    -0.05500
C1079       C  0.20097078  0.59317906  0.47679519    -0.06300
C1080       C  0.15137705  0.60707378  0.47826157    -0.06200
C1081       C  0.19692735  0.66806874  0.46669247    -0.31600
N1082       N  0.20439514  0.68242802  0.49869860     0.14900
C1083       C  0.20069946  0.66592686  0.02901847    -0.31600
H1084       H  0.20588873  0.67168618  0.05822430     0.16900
C1085       C  0.22019648  0.57359411  0.46412080    -0.30600
N1086       N  0.23113219  0.56026204  0.49513070     0.13600
C1087       C  0.21869383  0.57061819  0.02867338    -0.30600
C1088       C  0.12485665  0.59669093  0.46772585    -0.30900
N1089       N  0.11159414  0.58654563  0.49939722     0.14100
H1090       H  0.11658618  0.59451090  0.43890921     0.16800
C1091       C  0.12855881  0.59155146  0.03023036    -0.30900
H1092       H  0.12434123  0.58386403  0.05887150     0.16800
H1093       H  0.22282369  0.56372079  0.05769306     0.16800
H1094       H  0.19942037  0.67596866  0.43783161     0.16800
H1095       H  0.22535241  0.56887158  0.43459099     0.16800
C1096       C  0.18179050  0.61366573  0.28712877     0.30700
C1097       C  0.18218420  0.61384805  0.20781820     0.30700
C1098       C  0.18472106  0.64240153  0.26758321    -0.05500
C1099       C  0.20531287  0.59656010  0.26763245    -0.06300
C1100       C  0.15427384  0.60248604  0.26716734    -0.06200
C1101       C  0.18533927  0.64232903  0.22747571    -0.05500
C1102       C  0.20570923  0.59650353  0.22764927    -0.06300
C1103       C  0.15509515  0.60159400  0.22702610    -0.06200
C1104       C  0.19556138  0.66798999  0.21592676    -0.31600
N1105       N  0.20043509  0.68371346  0.24755077     0.14900
C1106       C  0.19320432  0.66862844  0.27898821    -0.31600
H1107       H  0.19614815  0.67571298  0.30808092     0.16900
C1108       C  0.22690238  0.57808020  0.21694933    -0.30600
N1109       N  0.23979220  0.56814488  0.24907774     0.13600
C1110       C  0.22641504  0.57883393  0.28015116    -0.30600
C1111       C  0.13055243  0.58801171  0.21502064    -0.30900
N1112       N  0.11392894  0.58269210  0.24604803     0.14100
H1113       H  0.12521143  0.58215416  0.18591126     0.16800
C1114       C  0.12776456  0.59194087  0.27781574    -0.30900
H1115       H  0.11917692  0.59027701  0.30649756     0.16800
H1116       H  0.23127879  0.57355177  0.30963712     0.16800
H1117       H  0.20209500  0.67358595  0.18714279     0.16800
H1118       H  0.23196605  0.57131490  0.18818977     0.16800
O1119       O  0.24446879  0.76740245  0.41286955    -0.77800
C1120       C  0.22106747  0.70747322  0.49934174     0.83200
O1121       O  0.22508506  0.82464833  0.01845948    -0.79000
O1122       O  0.27189775  0.74849098  0.08668316    -0.80400
O1123       O  0.33174598  0.74432548  0.47628225    -0.80200
O1124       O  0.29176209  0.77485154  0.41144187    -0.78900
Zn1125     Zn  0.23304864  0.76572990  0.46756512     1.55700
O1126       O  0.31433402  0.71942913  0.02301602    -0.80300
Cd1127     Cd  0.30245765  0.77583375  0.46770878     1.59700
Cd1128     Cd  0.26386198  0.80523849  0.02966862     1.59600
O1129       O  0.32240632  0.81334029  0.47785964    -0.80300
O1130       O  0.26709887  0.77131684  0.49890243    -1.90800
Cd1131     Cd  0.27476200  0.73774529  0.03085658     1.59900
O1132       O  0.29806919  0.83273577  0.02228873    -0.80200
O1133       O  0.24364749  0.70832058  0.02130862    -0.78900
C1134       C  0.20251468  0.81793686  0.49722199     0.83700
C1135       C  0.26783442  0.77108305  0.39496009     0.83300
O1136       O  0.21516050  0.72739903  0.47643824    -0.77800
C1137       C  0.33421817  0.72386100  0.99882158     0.84100
O1138       O  0.20352143  0.79635271  0.47595163    -0.77900
C1139       C  0.31962439  0.83269324  0.99981116     0.84300
C1140       C  0.26680093  0.77130518  0.10350723     0.84600
O1141       O  0.26289351  0.79424117  0.08613236    -0.80300
O1142       O  0.21306562  0.72820756  0.22580793    -0.77800
C1143       C  0.20216189  0.81726334  0.24811757     0.83200
O1144       O  0.29061601  0.77434559  0.16127501    -0.79000
O1145       O  0.29404536  0.83277887  0.27107970    -0.80400
O1146       O  0.27070984  0.74781016  0.33691103    -0.80200
O1147       O  0.23964020  0.70830024  0.27129788    -0.78900
Zn1148     Zn  0.23213954  0.76573256  0.21681977     1.55700
O1149       O  0.26350838  0.79385618  0.33662709    -0.80300
Cd1150     Cd  0.27216144  0.73678600  0.28064866     1.59700
Cd1151     Cd  0.30175503  0.77523632  0.21714353     1.59600
O1152       O  0.31178399  0.71811468  0.27176949    -0.80300
O1153       O  0.26635239  0.77038169  0.24823228    -1.90800
Cd1154     Cd  0.26162370  0.80426497  0.28028115     1.59900
O1155       O  0.33132961  0.74379493  0.22540455    -0.80200
O1156       O  0.22244348  0.82296020  0.27127489    -0.78900
C1157       C  0.26673656  0.77124102  0.14448273     0.83700
C1158       C  0.21831387  0.70797540  0.24842253     0.83300
O1159       O  0.20329328  0.79645889  0.22556946    -0.77800
C1160       C  0.26724066  0.77089635  0.35391931     0.84100
O1161       O  0.24317639  0.76770110  0.16199536    -0.77900
C1162       C  0.33221080  0.72329101  0.24856954     0.84300
C1163       C  0.31563459  0.83326643  0.24882940     0.84600
O1164       O  0.32134453  0.81324058  0.22629472    -0.80300
C1165       C  0.20249531  0.62764932  0.39368809    -0.25700
C1166       C  0.18150273  0.61222070  0.41353229    -0.13700
C1167       C  0.16775864  0.59091179  0.39208053     0.36900
C1168       C  0.16798447  0.59212990  0.35167277    -0.25100
C1169       C  0.18382426  0.61241546  0.33149397    -0.14400
C1170       C  0.20496609  0.62686535  0.35349966     0.38000
N1171       N  0.23107684  0.63776105  0.33739764    -0.88600
H1172       H  0.21890417  0.63859123  0.40958047     0.19100
H1173       H  0.15781398  0.57543487  0.33608327     0.19100
N1174       N  0.15575557  0.56687300  0.41081752    -0.87600
H1175       H  0.23239120  0.65908957  0.34307279     0.36500
H1176       H  0.23259525  0.63466999  0.30796377     0.41600
H1177       H  0.17250291  0.55583043  0.42350454     0.41200
H1178       H  0.14625064  0.55339855  0.39096488     0.36100
C1179       C  0.15810988  0.62224982  0.10197732    -0.25700
C1180       C  0.18309123  0.61541300  0.08144307    -0.13700
C1181       C  0.20915522  0.61485012  0.10287188     0.36900
C1182       C  0.20818940  0.61389890  0.14316604    -0.25100
C1183       C  0.18229060  0.61564665  0.16357297    -0.14400
C1184       C  0.15777385  0.62373738  0.14235946     0.38000
N1185       N  0.13299623  0.63457873  0.16157381    -0.88600
H1186       H  0.13891814  0.62790726  0.08650306     0.19100
H1187       H  0.22828794  0.61361226  0.15855519     0.19100
N1188       N  0.23700706  0.61753281  0.08566724    -0.87600
H1189       H  0.11687458  0.63952558  0.14190566     0.36500
H1190       H  0.13900593  0.65326669  0.17471198     0.41600
H1191       H  0.23616241  0.62153193  0.05634707     0.41200
H1192       H  0.24825887  0.59906096  0.09022338     0.36100
C1193       C  0.13483483  0.87520967  0.39377262    -0.25700
C1194       C  0.10952500  0.86842216  0.41368289    -0.13700
C1195       C  0.08390805  0.86786330  0.39180184     0.36900
C1196       C  0.08515494  0.86692656  0.35143123    -0.25100
C1197       C  0.11131477  0.86879043  0.33156897    -0.14400
C1198       C  0.13572931  0.87668324  0.35339567     0.38000
N1199       N  0.16090583  0.88753686  0.33487437    -0.88600
H1200       H  0.15387336  0.88073598  0.40978621     0.19100
H1201       H  0.06524835  0.86611807  0.33556496     0.19100
N1202       N  0.05654624  0.87036606  0.40993324    -0.87600
H1203       H  0.17677407  0.89247039  0.35495768     0.36500
H1204       H  0.15524324  0.90620613  0.32144046     0.41600
H1205       H  0.04720700  0.88888920  0.40040628     0.41200
H1206       H  0.04349090  0.85403371  0.40040976     0.36100
C1207       C  0.12201279  0.89136634  0.10139215    -0.25700
C1208       C  0.11580216  0.86649209  0.08162957    -0.13700
C1209       C  0.11516832  0.84161678  0.10417486     0.36900
C1210       C  0.11361157  0.84342375  0.14438152    -0.25100
C1211       C  0.11494552  0.86901866  0.16385814    -0.14400
C1212       C  0.12280735  0.89270082  0.14179134     0.38000
N1213       N  0.13346188  0.91748766  0.16000528    -0.88600
H1214       H  0.12791230  0.90976631  0.08532450     0.19100
H1215       H  0.11247440  0.82425922  0.16074045     0.19100
N1216       N  0.11807971  0.81416855  0.08828900    -0.87600
H1217       H  0.13848288  0.93282689  0.13976179     0.36500
H1218       H  0.15259410  0.91233304  0.17386970     0.41600
H1219       H  0.12120467  0.81425489  0.05880847     0.41200
H1220       H  0.09943354  0.80291431  0.09440638     0.36100
C1221       C  0.30794831  0.52867683  0.23210140    -0.25700
C1222       C  0.30149477  0.50326787  0.25003467    -0.13700
C1223       C  0.27391867  0.99831869  0.26697834     0.36900
C1224       C  0.25521671  0.52181702  0.26850315    -0.25100
C1225       C  0.26146942  0.54707486  0.25017787    -0.14400
C1226       C  0.28840511  0.55078935  0.23223480     0.38000
N1227       N  0.29685577  0.57668464  0.21471046    -0.88600
H1228       H  0.32860324  0.53143485  0.21846076     0.19100
H1229       H  0.23450422  0.51897123  0.28196017     0.19100
N1230       N  0.26481897  0.97214549  0.28313597    -0.87600
H1231       H  0.31514810  0.58380771  0.22906088     0.36500
H1232       H  0.28143428  0.59205325  0.21865467     0.41600
H1233       H  0.27935040  0.95632892  0.27722566     0.41200
H1234       H  0.24597660  0.96619067  0.26906976     0.36100
C1235       C  0.29767919  0.51901238  0.47695526    -0.25700
C1236       C  0.29073327  0.49370854  0.49489975    -0.13700
C1237       C  0.26202604  0.98927643  0.01523891     0.36900
C1238       C  0.24394633  0.51194578  0.01445756    -0.25100
C1239       C  0.25133287  0.53789463  0.49429294    -0.14400
C1240       C  0.27821292  0.54124741  0.47658571     0.38000
N1241       N  0.28578700  0.56741681  0.45922220    -0.88600
H1242       H  0.31860590  0.52150368  0.46399647     0.19100
H1243       H  0.22325785  0.50960329  0.02814525     0.19100
N1244       N  0.25239350  0.96369042  0.03256911    -0.87600
H1245       H  0.30640340  0.56651794  0.44763754     0.36500
H1246       H  0.28641603  0.58239309  0.48094623     0.41600
H1247       H  0.26667972  0.94746596  0.02766279     0.41200
H1248       H  0.23343131  0.95777736  0.01875616     0.36100
C1249       C  0.39022993  0.91322776  0.35363022    -0.25700
C1250       C  0.36522449  0.91989800  0.33280390    -0.13700
C1251       C  0.33914228  0.92092958  0.35417614     0.36900
C1252       C  0.34003309  0.92098028  0.39449664    -0.25100
C1253       C  0.36584125  0.91897513  0.41517963    -0.14400
C1254       C  0.39050822  0.91176222  0.39401443     0.38000
N1255       N  0.41552256  0.90149430  0.41309427    -0.88600
H1256       H  0.40967576  0.90786725  0.33861561     0.19100
H1257       H  0.31988137  0.92137629  0.40971135     0.19100
N1258       N  0.31117287  0.92027374  0.33682044    -0.87600
H1259       H  0.43303179  0.91365652  0.40462456     0.36500
H1260       H  0.41915151  0.88118819  0.40352690     0.41600
H1261       H  0.31171533  0.91780643  0.30727066     0.41200
H1262       H  0.30092184  0.93908864  0.34288483     0.36100
C1263       C  0.33899152  0.92248113  0.10368487    -0.25700
C1264       C  0.36473603  0.92100840  0.08287377    -0.13700
C1265       C  0.38979900  0.91412276  0.10371715     0.36900
C1266       C  0.38963649  0.91511447  0.14411428    -0.25100
C1267       C  0.36454108  0.92067281  0.16514355    -0.14400
C1268       C  0.33832082  0.92155122  0.14399593     0.38000
N1269       N  0.31049612  0.91990057  0.16157390    -0.88600
H1270       H  0.31875785  0.92287986  0.08858293     0.19100
H1271       H  0.40922100  0.91017525  0.15915682     0.19100
N1272       N  0.41522279  0.90534759  0.08399270    -0.87600
H1273       H  0.29967123  0.93850331  0.15604022     0.36500
H1274       H  0.31136510  0.91714160  0.19110405     0.41600
H1275       H  0.41058567  0.88642561  0.07052105     0.41200
H1276       H  0.43183087  0.90138380  0.10336034     0.36100
C1277       C  0.48514092  0.78273981  0.22894032    -0.25700
C1278       C  0.49142623  0.75646848  0.24439597    -0.13700
C1279       C  0.02067684  0.75003004  0.25892103     0.36900
C1280       C  0.04140967  0.77119163  0.25841977    -0.25100
C1281       C  0.03524925  0.79752199  0.24317201    -0.14400
C1282       C  0.00768637  0.80257391  0.22787482     0.38000
N1283       N  0.00008401  0.82924090  0.21261366    -0.88600
H1284       H  0.46387445  0.78679062  0.21785743     0.19100
H1285       H  0.06258559  0.76707952  0.26978859     0.19100
N1286       N  0.02863430  0.72319965  0.27321468    -0.87600
H1287       H  0.51106279  0.83531333  0.18994986     0.36500
H1288       H  0.00398390  0.84430085  0.23362659     0.41600
H1289       H  0.02417565  0.70836521  0.25210099     0.41200
H1290       H  0.01622358  0.71878167  0.29728585     0.36100
C1291       C  0.01677519  0.75098897  0.01667228    -0.25700
C1292       C  0.98832307  0.75866697  0.49778039    -0.13700
C1293       C  0.48540626  0.78418536  0.48216109     0.36900
C1294       C  0.00635175  0.80503439  0.48357204    -0.25100
C1295       C  0.03286414  0.79820157  0.49998026    -0.14400
C1296       C  0.03911976  0.77041616  0.01703389     0.38000
N1297       N  0.06642153  0.76211495  0.03170105    -0.88600
H1298       H  0.02040868  0.73020084  0.02776348     0.19100
H1299       H  0.00309247  0.82568105  0.47179888     0.19100
N1300       N  0.45876971  0.79236183  0.46526265    -0.87600
H1301       H  0.07138880  0.77472011  0.05514677     0.36500
H1302       H  0.08179340  0.76544594  0.01041034     0.41600
H1303       H  0.44263725  0.78985263  0.48575401     0.41200
H1304       H  0.45433172  0.77916856  0.44221269     0.36100
C1305       C  0.44956747  0.68010333  0.39406270    -0.25700
C1306       C  0.42357441  0.67639111  0.41381027    -0.13700
C1307       C  0.39976379  0.66711595  0.39185318     0.36900
C1308       C  0.40087883  0.66806801  0.35150763    -0.25100
C1309       C  0.42580255  0.67591449  0.33139750    -0.14400
C1310       C  0.45132764  0.67868015  0.35372591     0.38000
N1311       N  0.47956366  0.67798574  0.33748125    -0.88600
H1312       H  0.46914727  0.68296056  0.41029641     0.19100
H1313       H  0.38233207  0.66091218  0.33574693     0.19100
N1314       N  0.37512997  0.65496165  0.41014841    -0.87600
H1315       H  0.48961796  0.69695423  0.34340474     0.36500
H1316       H  0.47941928  0.67490768  0.30795767     0.41600
H1317       H  0.38179327  0.63661499  0.42361571     0.41200
H1318       H  0.35957704  0.64923237  0.39003033     0.36100
C1319       C  0.44987143  0.67813929  0.14386926    -0.25700
C1320       C  0.42381764  0.67456067  0.16351778    -0.13700
C1321       C  0.39997524  0.66537258  0.14158455     0.36900
C1322       C  0.40114968  0.66635247  0.10124108    -0.25100
C1323       C  0.42605917  0.67450477  0.08133355    -0.14400
C1324       C  0.45160186  0.67736886  0.10357936     0.38000
N1325       N  0.47982699  0.67787236  0.08712171    -0.88600
H1326       H  0.46947967  0.68079288  0.16009174     0.19100
H1327       H  0.38261629  0.65932632  0.08533045     0.19100
N1328       N  0.37517757  0.65356933  0.15991369    -0.87600
H1329       H  0.48919713  0.69724027  0.09291595     0.36500
H1330       H  0.47970892  0.67492072  0.05760838     0.41600
H1331       H  0.38159229  0.63521964  0.17357285     0.41200
H1332       H  0.35961194  0.64792158  0.13975647     0.36100
C1333       C  0.42529145  0.67846679  0.95798353     0.30700
C1334       C  0.42382568  0.67723584  0.53725116     0.30700
C1335       C  0.43776947  0.65241662  0.97682234    -0.05500
C1336       C  0.44173065  0.70215035  0.97825286    -0.06300
C1337       C  0.39564535  0.68123639  0.97717260    -0.06200
C1338       C  0.43573512  0.65160837  0.51708451    -0.05500
C1339       C  0.43999579  0.70157755  0.51782048    -0.06300
C1340       C  0.39388553  0.68016206  0.51854855    -0.06200
C1341       C  0.44869727  0.62734123  0.52852853    -0.31600
N1342       N  0.45732177  0.61360391  0.49673047     0.14900
C1343       C  0.45120380  0.62861007  0.96446638    -0.35200
H1344       H  0.45599482  0.62310082  0.93508465     0.16900
C1345       C  0.45619707  0.72399230  0.52955197    -0.30600
N1346       N  0.46654989  0.73839081  0.99980924     0.13600
C1347       C  0.45745666  0.72522431  0.96758000    -0.30600
C1348       C  0.37074438  0.69594049  0.53034910    -0.30900
N1349       N  0.35686348  0.70595310  0.49934326     0.14100
H1350       H  0.36638060  0.70263909  0.55936389     0.16800
C1351       C  0.37313711  0.69825087  0.96669447    -0.30900
H1352       H  0.36928759  0.70662347  0.93831106     0.16800
H1353       H  0.46296334  0.73143386  0.93867388     0.16800
H1354       H  0.45288389  0.62082105  0.55773231     0.16800
H1355       H  0.46102488  0.72984855  0.55878552     0.16800
C1356       C  0.42520158  0.67703482  0.70786658     0.30700
C1357       C  0.42730446  0.67850828  0.78695899     0.30700
C1358       C  0.43541126  0.65046491  0.72800946    -0.05500
C1359       C  0.44469703  0.69967691  0.72568495    -0.06300
C1360       C  0.39660560  0.68323073  0.72818110    -0.06200
C1361       C  0.43678198  0.65135401  0.76781900    -0.05500
C1362       C  0.44537468  0.70075957  0.76578053    -0.06300
C1363       C  0.39741704  0.68346287  0.76854852    -0.06200
C1364       C  0.44955413  0.62705603  0.77982564    -0.31600
N1365       N  0.45538224  0.61131297  0.74852025     0.14900
C1366       C  0.44671027  0.62529448  0.71670087    -0.31600
H1367       H  0.45022528  0.61852800  0.68749519     0.16900
C1368       C  0.46256797  0.72309115  0.77558276    -0.30600
N1369       N  0.47331468  0.73457792  0.74303496     0.13600
C1370       C  0.46198676  0.72099827  0.71243939    -0.30600
C1371       C  0.37383741  0.69867830  0.78036271    -0.30900
N1372       N  0.35897840  0.70723620  0.74915261     0.14100
H1373       H  0.36932831  0.70540274  0.80932746     0.16800
C1374       C  0.37345762  0.69935247  0.71747340    -0.30900
H1375       H  0.36843558  0.70627885  0.68868912     0.16800
H1376       H  0.46584084  0.72657502  0.68282760     0.16800
H1377       H  0.45536361  0.62174039  0.80899093     0.16800
H1378       H  0.46716792  0.73047934  0.80419378     0.16800
C1379       C  0.36524197  0.92116406  0.95963926     0.30700
C1380       C  0.36514633  0.92241430  0.53853353     0.30700
C1381       C  0.39088868  0.93549361  0.97922806    -0.05500
C1382       C  0.33991880  0.93695361  0.97826792    -0.06300
C1383       C  0.36397813  0.89258790  0.97965731    -0.06200
C1384       C  0.39197808  0.93446834  0.51881380    -0.05500
C1385       C  0.34145872  0.93914570  0.51824345    -0.06300
C1386       C  0.36178180  0.89349110  0.52035682    -0.06200
C1387       C  0.41348342  0.95254504  0.52985263    -0.31600
N1388       N  0.42688438  0.96214071  0.99918070     0.14900
C1389       C  0.41368896  0.95178929  0.96761399    -0.31600
H1390       H  0.41948374  0.95698182  0.93844018     0.16900
C1391       C  0.32249504  0.95966488  0.52880633    -0.30600
N1392       N  0.30929774  0.96954381  0.99735206     0.13600
C1393       C  0.32163594  0.95782925  0.96622172    -0.30600
C1394       C  0.34498105  0.87131808  0.53210275    -0.30900
N1395       N  0.33913691  0.85572601  0.00022476     0.14100
H1396       H  0.33706978  0.86777368  0.56087748     0.16800
C1397       C  0.34902411  0.86902410  0.96868054    -0.30900
H1398       H  0.34242665  0.86408667  0.93969017     0.16800
H1399       H  0.31863384  0.96522554  0.93718050     0.16800
H1400       H  0.41795459  0.95962101  0.55870974     0.16800
H1401       H  0.31844749  0.96720766  0.55749501     0.16800
C1402       C  0.36697191  0.92287521  0.70952173     0.30700
C1403       C  0.36761858  0.92220356  0.78852909     0.30700
C1404       C  0.39683892  0.92683146  0.72830418    -0.05500
C1405       C  0.35034982  0.94638437  0.72945579    -0.06300
C1406       C  0.35575563  0.89639820  0.72892277    -0.06200
C1407       C  0.39735740  0.92602866  0.76916761    -0.05500
C1408       C  0.35086150  0.94615416  0.76950629    -0.06300
C1409       C  0.35578168  0.89623277  0.76863327    -0.06200
C1410       C  0.41960776  0.94353910  0.78021373    -0.31600
N1411       N  0.43232368  0.95452614  0.74887837     0.14900
C1412       C  0.41808437  0.94554360  0.71757201    -0.31600
H1413       H  0.42115095  0.95415441  0.68915869     0.16900
C1414       C  0.33531072  0.96877964  0.78161925    -0.30600
N1415       N  0.32470017  0.98199909  0.75027317     0.13600
C1416       C  0.33435659  0.96905812  0.71830609    -0.30600
C1417       C  0.34193009  0.87230274  0.78022739    -0.30900
N1418       N  0.33389775  0.85790236  0.74857065     0.14100
H1419       H  0.33695864  0.86634806  0.80942948     0.16800
C1420       C  0.34249153  0.87219342  0.71701645    -0.30900
H1421       H  0.33765728  0.86636366  0.68773302     0.16800
H1422       H  0.32931126  0.97526945  0.68925199     0.16800
H1423       H  0.42387998  0.95067633  0.80908558     0.16800
H1424       H  0.33111168  0.97474958  0.81096131     0.16800
O1425       O  0.47244937  0.97358374  0.97639307    -0.77800
C1426       C  0.01967677  0.52286824  0.89310882     0.83200
O1427       O  0.07135692  0.97779333  0.52071108    -0.79000
O1428       O  0.06660265  0.57453650  0.97550029    -0.80400
O1429       O  0.46725984  0.56916530  0.51978659    -0.80200
O1430       O  0.45308779  0.99974459  0.52048183    -0.78900
Zn1431     Zn  0.01258945  0.98913345  0.96650141     1.55700
O1432       O  0.99578089  0.58616296  0.97289316    -0.80300
Cd1433     Cd  0.48425911  0.53006583  0.52921851     1.59700
Cd1434     Cd  0.05413528  0.51735534  0.52929631     1.59600
O1435       O  0.49503141  0.52809060  0.58542387    -0.80300
O1436       O  0.01975638  0.52228724  0.99669673    -1.90800
Cd1437     Cd  0.02693728  0.55640572  0.96560270     1.59900
O1438       O  0.04232094  0.51888666  0.58525166    -0.80200
O1439       O  0.02541516  0.54561841  0.90993305    -0.78900
C1440       C  0.06437484  0.95696971  0.99779794     0.83700
C1441       C  0.45196576  0.97937412  0.99914894     0.83300
O1442       O  0.01440339  0.00012026  0.91149966    -0.77800
C1443       C  0.47394349  0.58877471  0.49681504     0.84100
O1444       O  0.04288439  0.95914869  0.97532331    -0.77900
C1445       C  0.01879248  0.52344052  0.60236239     0.84300
C1446       C  0.08670668  0.56883831  0.99889976     0.84600
O1447       O  0.08493291  0.54837082  0.52131784    -0.80300
O1448       O  0.04609233  0.96079409  0.77285850    -0.77800
C1449       C  0.01958245  0.52291152  0.85181507     0.83200
O1450       O  0.45447257  0.99532426  0.72660646    -0.79000
O1451       O  0.99560815  0.58645514  0.76905591    -0.80400
O1452       O  0.08531242  0.54638423  0.72436227    -0.80200
O1453       O  0.07239640  0.97831627  0.72548306    -0.78900
Zn1454     Zn  0.01465676  0.98915367  0.78055828     1.55700
O1455       O  0.06789384  0.57364250  0.77012338    -0.80300
Cd1456     Cd  0.05368536  0.51670191  0.71641688     1.59700
Cd1457     Cd  0.48350328  0.52730817  0.71783369     1.59600
O1458       O  0.04218840  0.51868676  0.66078334    -0.80300
O1459       O  0.01914753  0.52229180  0.74858481    -1.90800
Cd1460     Cd  0.02688203  0.55672708  0.77869465     1.59900
O1461       O  0.49476280  0.52660160  0.66149980    -0.80200
O1462       O  0.02440915  0.54585246  0.83471257    -0.78900
C1463       C  0.45535642  0.97434312  0.74907463     0.83700
C1464       C  0.06693770  0.95908271  0.74951654     0.83300
O1465       O  0.01575815  0.00000633  0.83489463    -0.77800
C1466       C  0.08792814  0.56692658  0.74709824     0.84100
O1467       O  0.47658459  0.97011630  0.77125191    -0.77900
C1468       C  0.01863514  0.52304094  0.64365858     0.84300
C1469       C  0.47228535  0.58649776  0.74866273     0.84600
O1470       O  0.46482210  0.56599364  0.72761466    -0.80300
C1471       C  0.11124424  0.86641236  0.95806807     0.30700
C1472       C  0.11175216  0.86743465  0.53725069     0.30700
C1473       C  0.10516124  0.89467695  0.97727615    -0.05500
C1474       C  0.09010973  0.84683679  0.97881980    -0.06300
C1475       C  0.13982913  0.85735801  0.97666145    -0.06200
C1476       C  0.10507394  0.89566850  0.51762205    -0.05500
C1477       C  0.08870108  0.84862188  0.51853130    -0.06300
C1478       C  0.13935218  0.85848396  0.51678441    -0.06200
C1479       C  0.09011710  0.91912873  0.52894910    -0.31600
N1480       N  0.08125857  0.93201519  0.99733060     0.14900
C1481       C  0.08913380  0.91743069  0.96585964    -0.31600
H1482       H  0.08238766  0.92220292  0.93689113     0.16900
C1483       C  0.06722944  0.83093306  0.53082562    -0.30600
N1484       N  0.05733231  0.81741396  0.00096462     0.13600
C1485       C  0.07009686  0.82699833  0.96866660    -0.30600
C1486       C  0.16398586  0.84503718  0.52820814    -0.30900
N1487       N  0.17914353  0.83515456  0.99627785     0.14100
H1488       H  0.17035623  0.84064936  0.55745586     0.16800
C1489       C  0.16312700  0.84171098  0.96504363    -0.30900
H1490       H  0.16744023  0.83446681  0.93626288     0.16800
H1491       H  0.06539196  0.81953123  0.94011466     0.16800
H1492       H  0.08396407  0.92438451  0.55794451     0.16800
H1493       H  0.06049779  0.82741474  0.56009141     0.16800
C1494       C  0.11337017  0.86986502  0.70827044     0.30700
C1495       C  0.11222157  0.86875841  0.78739946     0.30700
C1496       C  0.10921110  0.89823226  0.72845479    -0.05500
C1497       C  0.08913500  0.85234754  0.72665551    -0.06300
C1498       C  0.13993241  0.85795938  0.72823653    -0.06200
C1499       C  0.10877285  0.89754819  0.76886687    -0.05500
C1500       C  0.08882465  0.85146192  0.76681605    -0.06300
C1501       C  0.13940639  0.85732160  0.76820143    -0.06200
C1502       C  0.09291949  0.92015022  0.78082574    -0.31600
N1503       N  0.08459040  0.93484368  0.74971344     0.14900
C1504       C  0.09325512  0.92122171  0.71796559    -0.31600
H1505       H  0.08586027  0.92614316  0.68932193     0.16900
C1506       C  0.06853857  0.83189957  0.77723114    -0.30600
N1507       N  0.05594664  0.82186614  0.74502761     0.13600
C1508       C  0.06831453  0.83399880  0.71402042    -0.30600
C1509       C  0.16259730  0.84172535  0.77985456    -0.30900
N1510       N  0.17715832  0.83339867  0.74836057     0.14100
H1511       H  0.16766963  0.83545964  0.80890264     0.16800
C1512       C  0.16332488  0.84271429  0.71664527    -0.30900
H1513       H  0.16930106  0.83792388  0.68742117     0.16800
H1514       H  0.06296994  0.82912697  0.68458795     0.16800
H1515       H  0.08596729  0.92429003  0.80985673     0.16800
H1516       H  0.06400699  0.82442549  0.80587474     0.16800
C1517       C  0.18166397  0.61315715  0.53712997     0.30700
C1518       C  0.18057752  0.61317141  0.95793417     0.30700
C1519       C  0.18930768  0.64082937  0.51748597    -0.05500
C1520       C  0.20110143  0.59220899  0.51672274    -0.06300
C1521       C  0.15254640  0.60588853  0.51849538    -0.06200
C1522       C  0.18909674  0.64106628  0.97709244    -0.05500
C1523       C  0.20089886  0.59243259  0.97755792    -0.06300
C1524       C  0.15152970  0.60713934  0.97820840    -0.06200
C1525       C  0.19827045  0.66737498  0.96592298    -0.31600
N1526       N  0.20581919  0.68194969  0.99773175     0.14900
C1527       C  0.19969305  0.66606052  0.52976350    -0.31600
H1528       H  0.20501846  0.67158861  0.55901208     0.16900
C1529       C  0.21993956  0.57250601  0.96548017    -0.30600
N1530       N  0.23066713  0.55945761  0.99684378     0.13600
C1531       C  0.21918009  0.57095943  0.52727970    -0.30600
C1532       C  0.12519087  0.59627363  0.96761317    -0.30900
N1533       N  0.11189174  0.58611569  0.99926438     0.14100
H1534       H  0.11709529  0.59377559  0.93876451     0.16800
C1535       C  0.12842633  0.59154194  0.53031231    -0.30900
H1536       H  0.12413576  0.58382898  0.55891930     0.16800
H1537       H  0.22338807  0.56367922  0.55610011     0.16800
H1538       H  0.20094136  0.67499265  0.93694619     0.16800
H1539       H  0.22522535  0.56745207  0.93609897     0.16800
C1540       C  0.18308745  0.61228791  0.78737765     0.30700
C1541       C  0.18280451  0.61284087  0.70802375     0.30700
C1542       C  0.18577167  0.64113067  0.76806840    -0.05500
C1543       C  0.20656193  0.59542460  0.76734486    -0.06300
C1544       C  0.15541323  0.60115101  0.76774480    -0.06200
C1545       C  0.18605222  0.64126353  0.72791111    -0.05500
C1546       C  0.20658677  0.59554943  0.72735025    -0.06300
C1547       C  0.15588648  0.60041976  0.72759489    -0.06200
C1548       C  0.19663899  0.66684447  0.71654344    -0.31600
N1549       N  0.20200899  0.68231559  0.74827582     0.14900
C1550       C  0.19477929  0.66716363  0.77963631    -0.31600
H1551       H  0.19798864  0.67407135  0.80875347     0.16900
C1552       C  0.22802411  0.57757725  0.71609197    -0.30600
N1553       N  0.24140050  0.56775383  0.74788632     0.13600
C1554       C  0.22815318  0.57806014  0.77930628    -0.30600
C1555       C  0.13093993  0.58736445  0.71592573    -0.30900
N1556       N  0.11441415  0.58227312  0.74714160     0.14100
H1557       H  0.12519894  0.58176859  0.68685716     0.16800
C1558       C  0.12874282  0.59109340  0.77875208    -0.30900
H1559       H  0.12032657  0.58958850  0.80754275     0.16800
H1560       H  0.23340920  0.57270202  0.80864456     0.16800
H1561       H  0.20303237  0.67252636  0.68773712     0.16800
H1562       H  0.23289105  0.57095380  0.68720837     0.16800
O1563       O  0.24554460  0.76752658  0.91259870    -0.77800
C1564       C  0.22255569  0.70700030  0.99824507     0.83200
O1565       O  0.22311720  0.82444653  0.51955702    -0.79000
O1566       O  0.27083192  0.74866958  0.58741477    -0.80400
O1567       O  0.33304678  0.74379329  0.97481020    -0.80200
O1568       O  0.29291858  0.77451137  0.91076204    -0.78900
Zn1569     Zn  0.23435071  0.76549939  0.96716790     1.55700
O1570       O  0.31273249  0.71954032  0.52386344    -0.80300
Cd1571     Cd  0.30392315  0.77545098  0.96673697     1.59700
Cd1572     Cd  0.26209153  0.80540136  0.53070964     1.59600
O1573       O  0.32427893  0.81282709  0.97659490    -0.80300
O1574       O  0.26860889  0.77102832  0.99810769    -1.90800
Cd1575     Cd  0.27329196  0.73803203  0.53166767     1.59900
O1576       O  0.29595295  0.83327522  0.52329231    -0.80200
O1577       O  0.24207366  0.70878934  0.52251916    -0.78900
C1578       C  0.20420785  0.81794229  0.99670265     0.83700
C1579       C  0.26885994  0.77103127  0.89454971     0.83300
O1580       O  0.21649031  0.72702668  0.97557516    -0.77800
C1581       C  0.33278547  0.72420582  0.50002392     0.84100
O1582       O  0.20490589  0.79610972  0.97589865    -0.77900
C1583       C  0.31754349  0.83327634  0.50088964     0.84300
C1584       C  0.26585229  0.77141935  0.60440197     0.84600
O1585       O  0.26161939  0.79436961  0.58719990    -0.80300
O1586       O  0.21413825  0.72699545  0.72681166    -0.77800
C1587       C  0.20214332  0.81629643  0.74884809     0.83200
O1588       O  0.29038704  0.77426241  0.66164008    -0.79000
O1589       O  0.29443625  0.83305498  0.77104119    -0.80400
O1590       O  0.27171363  0.74768837  0.83678172    -0.80200
O1591       O  0.24123682  0.70718027  0.77178464    -0.78900
Zn1592     Zn  0.23250147  0.76487514  0.71803215     1.55700
O1593       O  0.26414650  0.79372856  0.83635636    -0.80300
Cd1594     Cd  0.27336158  0.73637902  0.78083708     1.59700
Cd1595     Cd  0.30216348  0.77550169  0.71728842     1.59600
O1596       O  0.31358559  0.71865991  0.77251998    -0.80300
O1597       O  0.26700032  0.77009327  0.74867384    -1.90800
Cd1598     Cd  0.26212319  0.80424951  0.78017357     1.59900
O1599       O  0.33237064  0.74467491  0.72592886    -0.80200
O1600       O  0.22273389  0.82271464  0.77116565    -0.78900
C1601       C  0.26630118  0.77120242  0.64532799     0.83700
C1602       C  0.21975559  0.70670081  0.74913941     0.83300
O1603       O  0.20316880  0.79501841  0.72716883    -0.77800
C1604       C  0.26809233  0.77080038  0.85364026     0.84100
O1605       O  0.24295660  0.76745705  0.66324035    -0.77900
C1606       C  0.33389529  0.72435284  0.74934587     0.84300
C1607       C  0.31585614  0.83379315  0.74850080     0.84600
O1608       O  0.32148607  0.81384715  0.72578448    -0.80300
C1609       C  0.20376049  0.62616399  0.89396846    -0.25700
C1610       C  0.18236219  0.61116619  0.91369683    -0.13700
C1611       C  0.16859625  0.58982518  0.89232694     0.36900
C1612       C  0.16923932  0.59073010  0.85191531    -0.25100
C1613       C  0.18530250  0.61084495  0.83173201    -0.14400
C1614       C  0.20644120  0.62522586  0.85380523     0.38000
N1615       N  0.23263980  0.63600568  0.83781119    -0.88600
H1616       H  0.22019841  0.63699466  0.90994770     0.19100
H1617       H  0.15906303  0.57401636  0.83635930     0.19100
N1618       N  0.15605385  0.56609933  0.91117849    -0.87600
H1619       H  0.23410091  0.65730137  0.84363990     0.36500
H1620       H  0.23408866  0.63305403  0.80833550     0.41600
H1621       H  0.17248365  0.55494257  0.92440399     0.41200
H1622       H  0.14658096  0.55258842  0.89134431     0.36100
C1623       C  0.15824750  0.62137600  0.60225628    -0.25700
C1624       C  0.18318688  0.61476242  0.58145280    -0.13700
C1625       C  0.20931435  0.61428128  0.60273426     0.36900
C1626       C  0.20850552  0.61325445  0.64304869    -0.25100
C1627       C  0.18268198  0.61474425  0.66371111    -0.14400
C1628       C  0.15803538  0.62269615  0.64267922     0.38000
N1629       N  0.13328550  0.63338382  0.66210562    -0.88600
H1630       H  0.13899737  0.62709668  0.58697053     0.19100
H1631       H  0.22868008  0.61320757  0.65825369     0.19100
N1632       N  0.23708027  0.61726073  0.58538241    -0.87600
H1633       H  0.11705572  0.63828798  0.64257862     0.36500
H1634       H  0.13926200  0.65206407  0.67529153     0.41600
H1635       H  0.23610108  0.62161630  0.55616320     0.41200
H1636       H  0.24843859  0.59879725  0.58949604     0.36100
C1637       C  0.13583938  0.87481580  0.89377425    -0.25700
C1638       C  0.11060692  0.86779295  0.91378110    -0.13700
C1639       C  0.08487497  0.86750042  0.89215399     0.36900
C1640       C  0.08588846  0.86750685  0.85177304    -0.25100
C1641       C  0.11195445  0.86952947  0.83169035    -0.14400
C1642       C  0.13654136  0.87683143  0.85343592     0.38000
N1643       N  0.16177736  0.88747676  0.83483501    -0.88600
H1644       H  0.15498288  0.88011284  0.90969260     0.19100
H1645       H  0.06585257  0.86732393  0.83620173     0.19100
N1646       N  0.05757959  0.86920488  0.91064540    -0.87600
H1647       H  0.17788168  0.89182974  0.85483465     0.36500
H1648       H  0.15638758  0.90643786  0.82199397     0.41600
H1649       H  0.04785405  0.88774502  0.90192566     0.41200
H1650       H  0.04476716  0.85283827  0.90064973     0.36100
C1651       C  0.12178337  0.89152467  0.60112129    -0.25700
C1652       C  0.11429652  0.86684982  0.58164001    -0.13700
C1653       C  0.11330306  0.84202969  0.60430934     0.36900
C1654       C  0.11266344  0.84391929  0.64457248    -0.25100
C1655       C  0.11543262  0.86945257  0.66392739    -0.14400
C1656       C  0.12365443  0.89282920  0.64146880     0.38000
N1657       N  0.13593164  0.91712510  0.65912283    -0.88600
H1658       H  0.12794343  0.90972256  0.58478424     0.19100
H1659       H  0.11112498  0.82482942  0.66104080     0.19100
N1660       N  0.11514795  0.81448692  0.58846559    -0.87600
H1661       H  0.14110145  0.93224185  0.63862942     0.36500
H1662       H  0.15517039  0.91112336  0.67203786     0.41600
H1663       H  0.11823990  0.81444064  0.55895900     0.41200
H1664       H  0.09618077  0.80384386  0.59480570     0.36100
C1665       C  0.30997936  0.52884336  0.73174343    -0.25700
C1666       C  0.30316645  0.50309036  0.74845028    -0.13700
C1667       C  0.27593985  0.99905865  0.76567607     0.36900
C1668       C  0.25626569  0.52090413  0.76506236    -0.25100
C1669       C  0.26298130  0.54663357  0.74840244    -0.14400
C1670       C  0.29028725  0.55082270  0.73169210     0.38000
N1671       N  0.29890905  0.57701614  0.71520222    -0.88600
H1672       H  0.33097410  0.53194166  0.71920373     0.19100
H1673       H  0.23520255  0.51768584  0.77733948     0.19100
N1674       N  0.26643379  0.97219749  0.77900864    -0.87600
H1675       H  0.31663317  0.58421735  0.73071051     0.36500
H1676       H  0.28310114  0.59210078  0.71845971     0.41600
H1677       H  0.28164230  0.95684217  0.77388320     0.41200
H1678       H  0.24863245  0.96647300  0.76253940     0.36100
C1679       C  0.29685731  0.51783670  0.97797823    -0.25700
C1680       C  0.28986449  0.49257291  0.99598463    -0.13700
C1681       C  0.26286048  0.98963269  0.51251743     0.36900
C1682       C  0.24427098  0.51254935  0.51184224    -0.25100
C1683       C  0.25093097  0.53714003  0.99648124    -0.14400
C1684       C  0.27759185  0.54024007  0.97810084     0.38000
N1685       N  0.28509414  0.56630538  0.96038933    -0.88600
H1686       H  0.31760496  0.52012859  0.96445278     0.19100
H1687       H  0.22341595  0.51001343  0.52500491     0.19100
N1688       N  0.25308205  0.96372377  0.52873497    -0.87600
H1689       H  0.30553173  0.56524028  0.94828609     0.36500
H1690       H  0.28611750  0.58135078  0.98199903     0.41600
H1691       H  0.26789202  0.94782158  0.52462554     0.41200
H1692       H  0.23477872  0.95761960  0.51355379     0.36100
C1693       C  0.39093617  0.91364160  0.85418508    -0.25700
C1694       C  0.36609145  0.92010981  0.83287089    -0.13700
C1695       C  0.33983934  0.92143493  0.85381236     0.36900
C1696       C  0.34032865  0.92158757  0.89411174    -0.25100
C1697       C  0.36588228  0.91953032  0.91530834    -0.14400
C1698       C  0.39084452  0.91245824  0.89462308     0.38000
N1699       N  0.41587262  0.90280672  0.91429395    -0.88600
H1700       H  0.41054304  0.90828206  0.83955828     0.19100
H1701       H  0.31999539  0.92197909  0.90885055     0.19100
N1702       N  0.31201287  0.92111209  0.83601621    -0.87600
H1703       H  0.43322966  0.91520701  0.90590721     0.36500
H1704       H  0.41998457  0.88249160  0.90513469     0.41600
H1705       H  0.31273040  0.91867750  0.80647367     0.41200
H1706       H  0.30195813  0.94005385  0.84191737     0.36100
C1707       C  0.33986609  0.92359114  0.60366648    -0.25700
C1708       C  0.36557180  0.92162781  0.58284937    -0.13700
C1709       C  0.39055923  0.91457066  0.60378354     0.36900
C1710       C  0.39037725  0.91563596  0.64415788    -0.25100
C1711       C  0.36536302  0.92151502  0.66518996    -0.14400
C1712       C  0.33918496  0.92287574  0.64401346     0.38000
N1713       N  0.31134931  0.92192768  0.66163131    -0.88600
H1714       H  0.31965863  0.92429321  0.58851819     0.19100
H1715       H  0.40987376  0.91036709  0.65917636     0.19100
N1716       N  0.41589402  0.90538078  0.58421599    -0.87600
H1717       H  0.30102777  0.94079632  0.65606971     0.36500
H1718       H  0.31218555  0.91920265  0.69117132     0.41600
H1719       H  0.41099582  0.88649107  0.57081682     0.41200
H1720       H  0.43243530  0.90127586  0.60363061     0.36100
C1721       C  0.48808013  0.78221925  0.75918219    -0.25700
C1722       C  0.49420915  0.75665212  0.74171922    -0.13700
C1723       C  0.02131088  0.75215996  0.73139769     0.36900
C1724       C  0.04173044  0.77362686  0.73162658    -0.25100
C1725       C  0.03447492  0.80042280  0.74405461    -0.14400
C1726       C  0.00624805  0.80583549  0.75620075     0.38000
N1727       N  0.99786613  0.83303944  0.76847415    -0.88600
H1728       H  0.46722664  0.78547466  0.77194161     0.19100
H1729       H  0.06349473  0.76935716  0.72273198     0.19100
N1730       N  0.03004787  0.72479973  0.72021540    -0.87600
H1731       H  0.50417055  0.84544173  0.75756065     0.36500
H1732       H  0.01027883  0.83858045  0.79224618     0.41600
H1733       H  0.01811456  0.71877187  0.69624530     0.41200
H1734       H  0.02547684  0.71105594  0.74270211     0.36100
C1735       C  0.01490266  0.75182794  0.51390413    -0.25700
C1736       C  0.98994925  0.75785807  0.00134451    -0.13700
C1737       C  0.48392742  0.78632063  0.98634448     0.36900
C1738       C  0.00771348  0.80429609  0.98689192    -0.25100
C1739       C  0.03459453  0.79732876  0.00203137    -0.14400
C1740       C  0.03723047  0.77124316  0.51487120     0.38000
N1741       N  0.06437249  0.76287935  0.53000788    -0.88600
H1742       H  0.01832249  0.73109401  0.52531044     0.19100
H1743       H  0.00421961  0.82500196  0.97544756     0.19100
N1744       N  0.45644273  0.79477692  0.97242199    -0.87600
H1745       H  0.06912894  0.77539079  0.55359637     0.36500
H1746       H  0.07997140  0.76626006  0.50899051     0.41600
H1747       H  0.44151847  0.79184783  0.99440035     0.41200
H1748       H  0.45070932  0.78194248  0.94948372     0.36100
C1749       C  0.45186501  0.68237560  0.89410798    -0.25700
C1750       C  0.42597527  0.67737890  0.91364759    -0.13700
C1751       C  0.40274394  0.66700475  0.89151675     0.36900
C1752       C  0.40390174  0.66823171  0.85121459    -0.25100
C1753       C  0.42848906  0.67729311  0.83137589    -0.14400
C1754       C  0.45385466  0.68090887  0.85379328     0.38000
N1755       N  0.48217539  0.68031580  0.83773898    -0.88600
H1756       H  0.47126436  0.68589480  0.91047791     0.19100
H1757       H  0.38567137  0.66059118  0.83516772     0.19100
N1758       N  0.37865125  0.65371982  0.90963760    -0.87600
H1759       H  0.49188527  0.69971097  0.84196156     0.36500
H1760       H  0.48217548  0.67560104  0.80861366     0.41600
H1761       H  0.38615980  0.63573341  0.92321076     0.41200
H1762       H  0.36354101  0.64719801  0.88936010     0.36100
C1763       C  0.45058165  0.67809096  0.64320148    -0.25700
C1764       C  0.42487638  0.67477660  0.66369738    -0.13700
C1765       C  0.40054167  0.66587031  0.64261627     0.36900
C1766       C  0.40088806  0.66704050  0.60224542    -0.25100
C1767       C  0.42549306  0.67504160  0.58151913    -0.14400
C1768       C  0.45150482  0.67756176  0.60288881     0.38000
N1769       N  0.47943494  0.67789690  0.58553229    -0.88600
H1770       H  0.47055433  0.68034186  0.65871634     0.19100
H1771       H  0.38197130  0.66024724  0.58697143     0.19100
N1772       N  0.37603588  0.65427423  0.66187465    -0.87600
H1773       H  0.48912435  0.69712155  0.59127880     0.36500
H1774       H  0.47883240  0.67511203  0.55600197     0.41600
H1775       H  0.38257571  0.63589568  0.67535719     0.41200
H1776       H  0.36004277  0.64871569  0.64228464     0.36100
C1777       C  0.92329443  0.17861256  0.45857910     0.30700
C1778       C  0.92525263  0.17690478  0.03769038     0.30700
C1779       C  0.93563132  0.15259598  0.47769095    -0.05500
C1780       C  0.94042009  0.20224230  0.47787883    -0.06300
C1781       C  0.89399405  0.18221047  0.47830100    -0.06200
C1782       C  0.93734386  0.15138049  0.01726301    -0.05500
C1783       C  0.94151422  0.20138846  0.01871489    -0.06300
C1784       C  0.89541778  0.18002334  0.01869433    -0.06200
C1785       C  0.95010143  0.12689367  0.02836907    -0.31600
N1786       N  0.95869455  0.11326805  0.99640746     0.14900
C1787       C  0.94930687  0.12883000  0.46559924    -0.35200
H1788       H  0.95402205  0.12313913  0.43626349     0.16900
C1789       C  0.95696676  0.22419108  0.03089507    -0.30600
N1790       N  0.96617380  0.23831517  0.49793387     0.13600
C1791       C  0.95655854  0.22479503  0.46624024    -0.30600
C1792       C  0.87227444  0.19589890  0.03031932    -0.30900
N1793       N  0.85842345  0.20582339  0.99923209     0.14100
H1794       H  0.86785560  0.20268515  0.05928008     0.16800
C1795       C  0.87206937  0.19997828  0.46800460    -0.30900
H1796       H  0.86816817  0.20827181  0.43958961     0.16800
H1797       H  0.96196546  0.23032337  0.43704571     0.16800
H1798       H  0.95407713  0.12008958  0.05750148     0.16800
H1799       H  0.96141396  0.22995685  0.06027416     0.16800
C1800       C  0.92384689  0.17717517  0.20852506     0.30700
C1801       C  0.92481564  0.17805838  0.28765554     0.30700
C1802       C  0.93403200  0.15053866  0.22859054    -0.05500
C1803       C  0.94288663  0.19988391  0.22714492    -0.06300
C1804       C  0.89487158  0.18300355  0.22818114    -0.06200
C1805       C  0.93478976  0.15109961  0.26841662    -0.05500
C1806       C  0.94304626  0.20057988  0.26726333    -0.06300
C1807       C  0.89513299  0.18295291  0.26862263    -0.06200
C1808       C  0.94790409  0.12691225  0.28037191    -0.31600
N1809       N  0.95457416  0.11157296  0.24897877     0.14900
C1810       C  0.94607279  0.12570028  0.21719470    -0.31600
H1811       H  0.95019440  0.11929215  0.18798280     0.16900
C1812       C  0.96086411  0.22223581  0.27796115    -0.30600
N1813       N  0.97223684  0.23389843  0.24587684     0.13600
C1814       C  0.96088074  0.22096465  0.21475716    -0.30600
C1815       C  0.87171671  0.19857605  0.27999102    -0.30900
N1816       N  0.85737027  0.20748036  0.24861177     0.14100
H1817       H  0.86705352  0.20548319  0.30882657     0.16800
C1818       C  0.87209189  0.19956735  0.21716478    -0.30900
H1819       H  0.86757544  0.20682237  0.18838203     0.16800
H1820       H  0.96587271  0.22632325  0.18537071     0.16800
H1821       H  0.95338714  0.12144050  0.30959491     0.16800
H1822       H  0.96538089  0.22901315  0.30689549     0.16800
C1823       C  0.86654359  0.42182654  0.45943180     0.30700
C1824       C  0.86442049  0.42239599  0.03832733     0.30700
C1825       C  0.89424926  0.43224223  0.47879828    -0.05500
C1826       C  0.84416109  0.44122800  0.47810639    -0.06300
C1827       C  0.86099100  0.39393742  0.47970573    -0.06200
C1828       C  0.89045242  0.43618515  0.01869229    -0.05500
C1829       C  0.83963671  0.43783050  0.01841275    -0.06300
C1830       C  0.86278865  0.39345127  0.01970647    -0.06200
C1831       C  0.91292358  0.45306370  0.03001243    -0.31600
N1832       N  0.92844226  0.46138015  0.49814494     0.14900
C1833       C  0.91576919  0.45007007  0.46691697    -0.31600
H1834       H  0.92046479  0.45612096  0.43768630     0.16900
C1835       C  0.82122073  0.45873430  0.02934764    -0.30600
N1836       N  0.81322315  0.47337078  0.49693916     0.13600
C1837       C  0.82540240  0.46150202  0.46578907    -0.30600
C1838       C  0.84658906  0.37072292  0.03101956    -0.30900
N1839       N  0.83524286  0.35796548  0.50046243     0.14100
H1840       H  0.83853360  0.36693274  0.05966439     0.16800
C1841       C  0.84534555  0.37090742  0.46870450    -0.30900
H1842       H  0.83915163  0.36566538  0.43966099     0.16800
H1843       H  0.82128155  0.46784295  0.43652395     0.16800
H1844       H  0.91816650  0.45915750  0.05906196     0.16800
H1845       H  0.81783400  0.46650551  0.05807536     0.16800
C1846       C  0.86622095  0.42306906  0.20953080     0.30700
C1847       C  0.86681908  0.42288636  0.28857771     0.30700
C1848       C  0.89611868  0.42694467  0.22831951    -0.05500
C1849       C  0.84968281  0.44678105  0.22922149    -0.06300
C1850       C  0.85479660  0.39681667  0.22931650    -0.06200
C1851       C  0.89656838  0.42639525  0.26915790    -0.05500
C1852       C  0.85019564  0.44680601  0.26929856    -0.06300
C1853       C  0.85475680  0.39693413  0.26903614    -0.06200
C1854       C  0.91900878  0.44369222  0.28014825    -0.31600
N1855       N  0.93196874  0.45435177  0.24877397     0.14900
C1856       C  0.91765163  0.44534374  0.21749436    -0.31600
H1857       H  0.92087687  0.45374875  0.18900105     0.16900
C1858       C  0.83457896  0.46944955  0.28114605    -0.30600
N1859       N  0.82372706  0.48233256  0.24966730     0.13600
C1860       C  0.83351015  0.46927340  0.21784270    -0.30600
C1861       C  0.84065435  0.37325279  0.28099535    -0.30900
N1862       N  0.83259161  0.35870071  0.24951964     0.14100
H1863       H  0.83563666  0.36752606  0.31027128     0.16800
C1864       C  0.84136205  0.37264411  0.21777047    -0.30900
H1865       H  0.83659060  0.36656449  0.18856624     0.16800
H1866       H  0.82840331  0.47525942  0.18871933     0.16800
H1867       H  0.92325708  0.45092687  0.30898434     0.16800
H1868       H  0.83046180  0.47563022  0.31042531     0.16800
O1869       O  0.97353892  0.47413089  0.47539606    -0.77800
C1870       C  0.51962292  0.02372447  0.39448118     0.83200
O1871       O  0.57254203  0.47787610  0.01929232    -0.79000
O1872       O  0.56608921  0.07503419  0.47731176    -0.80400
O1873       O  0.96837429  0.06875873  0.01958055    -0.80200
O1874       O  0.95364236  0.49959640  0.02038610    -0.78900
Zn1875     Zn  0.51230595  0.49064698  0.46582652     1.55700
O1876       O  0.49502742  0.08687472  0.47484077    -0.80300
Cd1877     Cd  0.98502213  0.02952304  0.02933334     1.59700
Cd1878     Cd  0.55408362  0.01616773  0.03018319     1.59600
O1879       O  0.99568173  0.02799186  0.08560496    -0.80300
O1880       O  0.51924997  0.02276570  0.49793072    -1.90800
Cd1881     Cd  0.52629414  0.05713298  0.46727839     1.59900
O1882       O  0.54241411  0.01818489  0.08633410    -0.80200
O1883       O  0.52483602  0.04656377  0.41141257    -0.78900
C1884       C  0.56374664  0.45809116  0.49705333     0.83700
C1885       C  0.95274785  0.47960606  0.49775359     0.83300
O1886       O  0.51435724  0.50207222  0.41124407    -0.77800
C1887       C  0.97500479  0.08817246  0.99627231     0.84100
O1888       O  0.54241333  0.46051578  0.47439129    -0.77900
C1889       C  0.51901961  0.02330743  0.10349870     0.84300
C1890       C  0.58641420  0.06885098  0.50014627     0.84600
O1891       O  0.58517597  0.04707751  0.02198821    -0.80300
O1892       O  0.54466502  0.46075127  0.27328245    -0.77800
C1893       C  0.51964208  0.02369873  0.35318059     0.83200
O1894       O  0.95471856  0.49461256  0.22559819    -0.79000
O1895       O  0.49546319  0.08689370  0.26995530    -0.80400
O1896       O  0.58556412  0.04621313  0.22586337    -0.80200
O1897       O  0.57096602  0.47750742  0.22529385    -0.78900
Zn1898     Zn  0.51375986  0.48977917  0.28099582     1.55700
O1899       O  0.56779862  0.07405664  0.27074355    -0.80300
Cd1900     Cd  0.55375062  0.01667410  0.21775708     1.59700
Cd1901     Cd  0.98314974  0.02751490  0.21815741     1.59600
O1902       O  0.54242251  0.01890512  0.16203699    -0.80300
O1903       O  0.51917544  0.02251304  0.24989881    -1.90800
Cd1904     Cd  0.52684823  0.05716671  0.27975144     1.59900
O1905       O  0.99491576  0.02685342  0.16177751    -0.80200
O1906       O  0.52457312  0.04657497  0.33595980    -0.78900
C1907       C  0.95510572  0.47411930  0.24892915     0.83700
C1908       C  0.56518314  0.45845593  0.24947364     0.83300
O1909       O  0.51527614  0.50165303  0.33503288    -0.77800
C1910       C  0.58797566  0.06708237  0.24809053     0.84100
O1911       O  0.97592212  0.47039200  0.27198426    -0.77900
C1912       C  0.51888488  0.02319003  0.14484505     0.84300
C1913       C  0.97178524  0.08690699  0.24907579     0.84600
O1914       O  0.96433460  0.06622546  0.22829974    -0.80300
C1915       C  0.60975862  0.36720371  0.45703892     0.30700
C1916       C  0.61362595  0.36835454  0.03628334     0.30700
C1917       C  0.60423435  0.39561160  0.47625126    -0.05500
C1918       C  0.58807561  0.34810444  0.47754873    -0.06300
C1919       C  0.63801570  0.35745302  0.47591407    -0.06200
C1920       C  0.60818915  0.39669000  0.01628805    -0.05500
C1921       C  0.58945395  0.35042228  0.01847231    -0.06300
C1922       C  0.64054431  0.35794730  0.01557674    -0.06200
C1923       C  0.59271822  0.41988624  0.02741998    -0.31600
N1924       N  0.58051856  0.43306591  0.49648116     0.14900
C1925       C  0.58826658  0.41845524  0.46496328    -0.31600
H1926       H  0.58142972  0.42324248  0.43603732     0.16900
C1927       C  0.56772979  0.33340695  0.03181380    -0.30600
N1928       N  0.55509212  0.31866298  0.49905419     0.13600
C1929       C  0.56813162  0.32832605  0.46702186    -0.30600
C1930       C  0.66548346  0.34498470  0.02689063    -0.30900
N1931       N  0.67713929  0.33510654  0.49598225     0.14100
H1932       H  0.67237357  0.34136723  0.05612647     0.16800
C1933       C  0.66139373  0.34180181  0.46452785    -0.30900
H1934       H  0.66599345  0.33472931  0.43574871     0.16800
H1935       H  0.56381415  0.32078725  0.43839677     0.16800
H1936       H  0.58635322  0.42504766  0.05635977     0.16800
H1937       H  0.56166472  0.33031954  0.06142876     0.16800
C1938       C  0.61320976  0.36985867  0.20714868     0.30700
C1939       C  0.61173989  0.36807055  0.28626483     0.30700
C1940       C  0.60740524  0.39775249  0.22771037    -0.05500
C1941       C  0.58983279  0.35101359  0.22508344    -0.06300
C1942       C  0.64027499  0.35922370  0.22714792    -0.06200
C1943       C  0.60678800  0.39671811  0.26802287    -0.05500
C1944       C  0.58940228  0.34972647  0.26522137    -0.06300
C1945       C  0.63956909  0.35822774  0.26713801    -0.06200
C1946       C  0.59060388  0.41897716  0.28030958    -0.31600
N1947       N  0.58220693  0.43380341  0.24934099     0.14900
C1948       C  0.59119999  0.42057745  0.21738904    -0.31600
H1949       H  0.58424938  0.42588444  0.18867623     0.16900
C1950       C  0.56949234  0.32965267  0.27509682    -0.30600
N1951       N  0.55711038  0.31970866  0.24259304     0.13600
C1952       C  0.56941274  0.33245642  0.21194787    -0.30600
C1953       C  0.66226514  0.34195693  0.27859724    -0.30900
N1954       N  0.67688571  0.33385526  0.24709859     0.14100
H1955       H  0.66683111  0.33495378  0.30748113     0.16800
C1956       C  0.66340076  0.34365717  0.21546184    -0.30900
H1957       H  0.66926578  0.33877081  0.18622722     0.16800
H1958       H  0.56459255  0.32770159  0.18233504     0.16800
H1959       H  0.58383323  0.42301872  0.30944317     0.16800
H1960       H  0.56468677  0.32224188  0.30369792     0.16800
C1961       C  0.68161478  0.11240134  0.03801922     0.30700
C1962       C  0.68065842  0.11297986  0.45864787     0.30700
C1963       C  0.69025668  0.13972560  0.01811103    -0.05500
C1964       C  0.70034773  0.09072395  0.01793565    -0.06300
C1965       C  0.65223349  0.10587670  0.01949164    -0.06200
C1966       C  0.68844265  0.14102191  0.47794144    -0.05500
C1967       C  0.70161877  0.09272334  0.47803981    -0.06300
C1968       C  0.65183322  0.10608476  0.47898164    -0.06200
C1969       C  0.69735437  0.16741156  0.46679396    -0.31600
N1970       N  0.70488674  0.18200222  0.49858022     0.14900
C1971       C  0.70136523  0.16477960  0.03016501    -0.31600
H1972       H  0.70670320  0.17037869  0.05938182     0.16900
C1973       C  0.72094343  0.07306449  0.46581061    -0.30600
N1974       N  0.73181872  0.06002161  0.49710210     0.13600
C1975       C  0.71792932  0.06914657  0.02881100    -0.30600
C1976       C  0.62529081  0.09558808  0.46851145    -0.30900
N1977       N  0.61183087  0.08580663  0.50029096     0.14100
H1978       H  0.61706926  0.09321234  0.43970235     0.16800
C1979       C  0.62844027  0.09086470  0.03120816    -0.30900
H1980       H  0.62443145  0.08288924  0.05975609     0.16800
H1981       H  0.72208988  0.06209823  0.05775402     0.16800
H1982       H  0.70000112  0.17504788  0.43782452     0.16800
H1983       H  0.72613261  0.06802805  0.43639259     0.16800
C1984       C  0.68271627  0.11320974  0.28813007     0.30700
C1985       C  0.68263865  0.11332149  0.20881114     0.30700
C1986       C  0.68546203  0.14195904  0.26853910    -0.05500
C1987       C  0.70620282  0.09618902  0.26842282    -0.06300
C1988       C  0.65509441  0.10199172  0.26849042    -0.06200
C1989       C  0.68582686  0.14186277  0.22840579    -0.05500
C1990       C  0.70633373  0.09608264  0.22844222    -0.06300
C1991       C  0.65566642  0.10102671  0.22836229    -0.06200
C1992       C  0.69579575  0.16760322  0.21673553    -0.31600
N1993       N  0.70082412  0.18336836  0.24829892     0.14900
C1994       C  0.69387788  0.16824241  0.27982976    -0.31600
H1995       H  0.69696834  0.17534376  0.30888726     0.16900
C1996       C  0.72741738  0.07760866  0.21752591    -0.30600
N1997       N  0.74051192  0.06771946  0.24950002     0.13600
C1998       C  0.72739622  0.07847131  0.28072579    -0.30600
C1999       C  0.63087697  0.08766417  0.21674278    -0.30900
N2000       N  0.61435992  0.08258437  0.24797580     0.14100
H2001       H  0.62526144  0.08183154  0.18771841     0.16800
C2002       C  0.62852211  0.09175423  0.27952412    -0.30900
H2003       H  0.62010532  0.09029484  0.30832092     0.16800
H2004       H  0.73243562  0.07316984  0.31015153     0.16800
H2005       H  0.70206495  0.17324013  0.18786263     0.16800
H2006       H  0.73221138  0.07069137  0.18875311     0.16800
O2007       O  0.74427611  0.26749546  0.41285098    -0.77800
C2008       C  0.72153220  0.20712475  0.49892421     0.83200
O2009       O  0.72463296  0.32438801  0.01785721    -0.79000
O2010       O  0.77168949  0.24885922  0.08718943    -0.80400
O2011       O  0.83241344  0.24616093  0.47635680    -0.80200
O2012       O  0.79151795  0.27530790  0.41119306    -0.78900
Zn2013     Zn  0.73291330  0.26571727  0.46744677     1.55700
O2014       O  0.81456683  0.21979589  0.02427011    -0.80300
Cd2015     Cd  0.80227826  0.27685853  0.46729895     1.59700
Cd2016     Cd  0.76360312  0.30526312  0.02946344     1.59600
O2017       O  0.82122968  0.31490828  0.47670436    -0.80300
O2018       O  0.76700549  0.27168428  0.49852854    -1.90800
Cd2019     Cd  0.77475427  0.23771728  0.03157578     1.59900
O2020       O  0.79767587  0.33289473  0.02174110    -0.80200
O2021       O  0.74402473  0.20774374  0.02235688    -0.78900
C2022       C  0.70224353  0.31795139  0.49679782     0.83700
C2023       C  0.76757340  0.27134033  0.39486854     0.83300
O2024       O  0.71521485  0.22716101  0.47637364    -0.77800
C2025       C  0.83428022  0.22401566  0.99976082     0.84100
O2026       O  0.70335257  0.29633213  0.47560671    -0.77900
C2027       C  0.81929696  0.33280458  0.99938708     0.84300
C2028       C  0.76690021  0.27182341  0.10377458     0.84600
O2029       O  0.76312257  0.29469477  0.08616198    -0.80300
O2030       O  0.71331152  0.22780127  0.22600921    -0.77800
C2031       C  0.70173719  0.31669284  0.24764747     0.83200
O2032       O  0.79057063  0.27585592  0.16158677    -0.79000
O2033       O  0.79320133  0.33371336  0.27192950    -0.80400
O2034       O  0.77086712  0.24820626  0.33687670    -0.80200
O2035       O  0.73983716  0.20839617  0.27190549    -0.78900
Zn2036     Zn  0.73219666  0.26545765  0.21688007     1.55700
O2037       O  0.76265788  0.29409177  0.33671790    -0.80300
Cd2038     Cd  0.77219986  0.23722505  0.28071713     1.59700
Cd2039     Cd  0.80150074  0.27649434  0.21753773     1.59600
O2040       O  0.81204881  0.21919323  0.27163715    -0.80300
O2041       O  0.76617467  0.27081789  0.24844443    -1.90800
Cd2042     Cd  0.76110537  0.30461277  0.28049898     1.59900
O2043       O  0.83150186  0.24554576  0.22587156    -0.80200
O2044       O  0.72182657  0.32263023  0.27096556    -0.78900
C2045       C  0.76684049  0.27190411  0.14474365     0.83700
C2046       C  0.71857160  0.20776000  0.24894000     0.83300
O2047       O  0.70311587  0.29588241  0.22515883    -0.77800
C2048       C  0.76688486  0.27118510  0.35391105     0.84100
O2049       O  0.74342815  0.26743318  0.16220229    -0.77900
C2050       C  0.83254898  0.22490265  0.24877718     0.84300
C2051       C  0.81472928  0.33452116  0.24958187     0.84600
O2052       O  0.82058953  0.31462823  0.22693518    -0.80300
C2053       C  0.70349854  0.12667439  0.39476861    -0.25700
C2054       C  0.68234253  0.11130094  0.41441057    -0.13700
C2055       C  0.66866495  0.09004584  0.39283431     0.36900
C2056       C  0.66912463  0.09130093  0.35244729    -0.25100
C2057       C  0.68484714  0.11178304  0.33245567    -0.14400
C2058       C  0.70592801  0.12620293  0.35457034     0.38000
N2059       N  0.73188425  0.13747086  0.33851587    -0.88600
H2060       H  0.71992911  0.13747880  0.41080310     0.19100
H2061       H  0.65908901  0.07458948  0.33672040     0.19100
N2062       N  0.65645894  0.06605416  0.41143506    -0.87600
H2063       H  0.73294784  0.15877894  0.34443400     0.36500
H2064       H  0.73336334  0.13456116  0.30904027     0.41600
H2065       H  0.67308063  0.05501158  0.42442603     0.41200
H2066       H  0.64709333  0.05257627  0.39146747     0.36100
C2067       C  0.65824360  0.12124821  0.10296819    -0.25700
C2068       C  0.68314002  0.11428430  0.08229155    -0.13700
C2069       C  0.70925112  0.11355281  0.10359544     0.36900
C2070       C  0.70841306  0.11294796  0.14391404    -0.25100
C2071       C  0.68260368  0.11494207  0.16451041    -0.14400
C2072       C  0.65801735  0.12287166  0.14335261     0.38000
N2073       N  0.63325924  0.13369968  0.16261846    -0.88600
H2074       H  0.63901686  0.12693057  0.08759798     0.19100
H2075       H  0.72857837  0.11273504  0.15913557     0.19100
N2076       N  0.73708567  0.11568307  0.08620683    -0.87600
H2077       H  0.61705328  0.13850748  0.14301039     0.36500
H2078       H  0.63923744  0.15245130  0.17560728     0.41600
H2079       H  0.73622889  0.11957155  0.05686111     0.41200
H2080       H  0.74799671  0.09702815  0.09084656     0.36100
C2081       C  0.63478299  0.37500452  0.39289804    -0.25700
C2082       C  0.60938039  0.36837944  0.41270883    -0.13700
C2083       C  0.58382649  0.36788182  0.39069711     0.36900
C2084       C  0.58517176  0.36694644  0.35032994    -0.25100
C2085       C  0.61137637  0.36879324  0.33056891    -0.14400
C2086       C  0.63579823  0.37646651  0.35252451     0.38000
N2087       N  0.66114549  0.38704545  0.33411771    -0.88600
H2088       H  0.65381357  0.38043074  0.40898999     0.19100
H2089       H  0.56529496  0.36623632  0.33439104     0.19100
N2090       N  0.55642759  0.37051036  0.40868675    -0.87600
H2091       H  0.67702788  0.39178298  0.35426931     0.36500
H2092       H  0.65574176  0.40578930  0.32068823     0.41600
H2093       H  0.54718048  0.38904829  0.39905201     0.41200
H2094       H  0.54334246  0.35420272  0.39916015     0.36100
C2095       C  0.62298390  0.39248759  0.10060458    -0.25700
C2096       C  0.61634904  0.36777637  0.08063829    -0.13700
C2097       C  0.61546511  0.34281717  0.10295503     0.36900
C2098       C  0.61411051  0.34442812  0.14318169    -0.25100
C2099       C  0.61574061  0.36989114  0.16288754    -0.14400
C2100       C  0.62397510  0.39356395  0.14104855     0.38000
N2101       N  0.63525484  0.41798863  0.15953043    -0.88600
H2102       H  0.62911203  0.41089114  0.08470571     0.19100
H2103       H  0.61277801  0.32519715  0.15935272     0.19100
N2104       N  0.61776847  0.31540135  0.08680053    -0.87600
H2105       H  0.64065626  0.43330650  0.13942756     0.36500
H2106       H  0.65427122  0.41229792  0.17328356     0.41600
H2107       H  0.61992039  0.31549897  0.05708270     0.41200
H2108       H  0.59926969  0.30434865  0.09375507     0.36100
C2109       C  0.80882898  0.02848152  0.23304907    -0.25700
C2110       C  0.80199668  0.00274797  0.24979244    -0.13700
C2111       C  0.77601286  0.50078140  0.26816434     0.36900
C2112       C  0.75533867  0.02087596  0.26717910    -0.25100
C2113       C  0.76204230  0.04653579  0.25027563    -0.14400
C2114       C  0.78928395  0.05058355  0.23333594     0.38000
N2115       N  0.79799908  0.07678900  0.21696359    -0.88600
H2116       H  0.82975236  0.03148641  0.22026018     0.19100
H2117       H  0.73435595  0.01778172  0.27975684     0.19100
N2118       N  0.76693198  0.47478859  0.28488554    -0.87600
H2119       H  0.81590364  0.08376633  0.23229219     0.36500
H2120       H  0.78237114  0.09200100  0.22063059     0.41600
H2121       H  0.78105602  0.45876350  0.27834085     0.41200
H2122       H  0.74769757  0.46902159  0.27164829     0.36100
C2123       C  0.79797314  0.01800352  0.47943667    -0.25700
C2124       C  0.79052832  0.99268121  0.49698548    -0.13700
C2125       C  0.76176456  0.48916405  0.01498198     0.36900
C2126       C  0.74247152  0.01027896  0.01460061    -0.25100
C2127       C  0.75185925  0.03749970  0.49670247    -0.14400
C2128       C  0.77885628  0.04054343  0.47920944     0.38000
N2129       N  0.78685063  0.06667339  0.46207511    -0.88600
H2130       H  0.81895222  0.02022356  0.46654104     0.19100
H2131       H  0.72185493  0.00821615  0.02856182     0.19100
N2132       N  0.75232209  0.46339591  0.03198825    -0.87600
H2133       H  0.80749482  0.06554348  0.45062343     0.36500
H2134       H  0.78760377  0.08156298  0.48390631     0.41600
H2135       H  0.76698294  0.44742196  0.02752278     0.41200
H2136       H  0.73368914  0.45717830  0.01763812     0.36100
C2137       C  0.89047663  0.41353792  0.35355677    -0.25700
C2138       C  0.86558610  0.42084232  0.33290903    -0.13700
C2139       C  0.83961620  0.42254269  0.35443927     0.36900
C2140       C  0.84065788  0.42258094  0.39474782    -0.25100
C2141       C  0.86649756  0.42000062  0.41519664    -0.14400
C2142       C  0.89088403  0.41214351  0.39390828     0.38000
N2143       N  0.91568111  0.40124270  0.41282740    -0.88600
H2144       H  0.90969733  0.40760589  0.33844101     0.19100
H2145       H  0.82061316  0.42356521  0.41017214     0.19100
N2146       N  0.81158823  0.42260622  0.33725393    -0.87600
H2147       H  0.93345359  0.41305053  0.40439624     0.36500
H2148       H  0.91879401  0.38087518  0.40316906     0.41600
H2149       H  0.81198502  0.42016049  0.30769391     0.41200
H2150       H  0.80187619  0.44167378  0.34341167     0.36100
C2151       C  0.83905164  0.42327757  0.10362632    -0.25700
C2152       C  0.86473549  0.42130163  0.08271040    -0.13700
C2153       C  0.88970203  0.41422550  0.10361488     0.36900
C2154       C  0.88956989  0.41535406  0.14404788    -0.25100
C2155       C  0.86459532  0.42139774  0.16514800    -0.14400
C2156       C  0.83840623  0.42271298  0.14398541     0.38000
N2157       N  0.81057315  0.42189385  0.16163077    -0.88600
H2158       H  0.81879542  0.42381730  0.08860405     0.19100
H2159       H  0.90907697  0.41010748  0.15905567     0.19100
N2160       N  0.91498990  0.40507411  0.08391519    -0.87600
H2161       H  0.80024953  0.44072294  0.15582257     0.36500
H2162       H  0.81141355  0.41938845  0.19120477     0.41600
H2163       H  0.91009080  0.38616843  0.07056251     0.41200
H2164       H  0.93155478  0.40096528  0.10329075     0.36100
C2165       C  0.98802194  0.28057393  0.22585342    -0.25700
C2166       C  0.99380219  0.25540980  0.24475529    -0.13700
C2167       C  0.52102044  0.25107216  0.25990070     0.36900
C2168       C  0.54173576  0.27220972  0.25858866    -0.25100
C2169       C  0.53586413  0.29792849  0.24124954    -0.14400
C2170       C  0.50865862  0.30230102  0.22446417     0.38000
N2171       N  0.50135567  0.32821390  0.20667707    -0.88600
H2172       H  0.96720166  0.28373614  0.21284780     0.19100
H2173       H  0.56266581  0.26857109  0.27104435     0.19100
N2174       N  0.52880176  0.22476926  0.27610906    -0.87600
H2175       H  0.01456719  0.33056073  0.18214720     0.36500
H2176       H  0.50501776  0.34425060  0.22634880     0.41600
H2177       H  0.52460326  0.20920971  0.25591826     0.41200
H2178       H  0.51613960  0.22120482  0.30021469     0.36100
C2179       C  0.51449715  0.25440200  0.01965113    -0.25700
C2180       C  0.48821884  0.25845062  0.49793388    -0.13700
C2181       C  0.98374133  0.28572921  0.48117331     0.36900
C2182       C  0.50608713  0.30472150  0.48258003    -0.25100
C2183       C  0.53253566  0.29833330  0.49952501    -0.14400
C2184       C  0.53613478  0.27452475  0.02136323     0.38000
N2185       N  0.56187231  0.26789448  0.04159121    -0.88600
H2186       H  0.51774221  0.23446267  0.03357047     0.19100
H2187       H  0.50276051  0.32517099  0.47020196     0.19100
N2188       N  0.95700678  0.29305284  0.46380316    -0.87600
H2189       H  0.56338348  0.28113679  0.06514523     0.36500
H2190       H  0.57933953  0.27136080  0.02346050     0.41600
H2191       H  0.94081946  0.29038156  0.48417983     0.41200
H2192       H  0.95304047  0.27953054  0.44097450     0.36100
C2193       C  0.94951084  0.18041115  0.39466732    -0.25700
C2194       C  0.92346910  0.17709423  0.41432372    -0.13700
C2195       C  0.89944573  0.16832189  0.39237221     0.36900
C2196       C  0.90058030  0.16938479  0.35205468    -0.25100
C2197       C  0.92571834  0.17670822  0.33207242    -0.14400
C2198       C  0.95127717  0.17883700  0.35441626     0.38000
N2199       N  0.97950344  0.17714197  0.33832106    -0.88600
H2200       H  0.96912206  0.18294485  0.41094334     0.19100
H2201       H  0.88190072  0.16266037  0.33620779     0.19100
N2202       N  0.87459330  0.15653978  0.41061038    -0.87600
H2203       H  0.99017897  0.19581491  0.34405250     0.36500
H2204       H  0.97938626  0.17374532  0.30887266     0.41600
H2205       H  0.88092101  0.13805638  0.42399889     0.41200
H2206       H  0.85894320  0.15111860  0.39045389     0.36100
C2207       C  0.95030198  0.17810049  0.14451390    -0.25700
C2208       C  0.92422206  0.17501518  0.16428995    -0.13700
C2209       C  0.90021490  0.16611904  0.14251003     0.36900
C2210       C  0.90134982  0.16684612  0.10215349    -0.25100
C2211       C  0.92631707  0.17461657  0.08205026    -0.14400
C2212       C  0.95192974  0.17728691  0.10419535     0.38000
N2213       N  0.98011178  0.17758264  0.08760315    -0.88600
H2214       H  0.97000397  0.18038092  0.16062246     0.19100
H2215       H  0.88269690  0.15993541  0.08641156     0.19100
N2216       N  0.87521266  0.15492978  0.16106173    -0.87600
H2217       H  0.98961817  0.19689123  0.09335945     0.36500
H2218       H  0.97986989  0.17471063  0.05807548     0.41600
H2219       H  0.88126674  0.13655959  0.17496792     0.41200
H2220       H  0.85950344  0.14944537  0.14102443     0.36100
C2221       C  0.92498171  0.17815898  0.95860584     0.30700
C2222       C  0.92407152  0.17801064  0.53756699     0.30700
C2223       C  0.93758784  0.15216132  0.97746748    -0.05500
C2224       C  0.94165661  0.20188987  0.97856453    -0.06300
C2225       C  0.89547529  0.18106384  0.97809521    -0.06200
C2226       C  0.93564906  0.15215997  0.51745596    -0.05500
C2227       C  0.94048531  0.20215398  0.51801313    -0.06300
C2228       C  0.89414019  0.18134711  0.51893770    -0.06200
C2229       C  0.94841013  0.12773589  0.52885903    -0.31600
N2230       N  0.95678597  0.11381315  0.49704598     0.14900
C2231       C  0.95136641  0.12852033  0.96511805    -0.35200
H2232       H  0.95610596  0.12300135  0.93572515     0.16900
C2233       C  0.95622965  0.22492386  0.52955108    -0.30600
N2234       N  0.96683134  0.23815511  0.99968130     0.13600
C2235       C  0.95752622  0.22484496  0.96761462    -0.30600
C2236       C  0.87140215  0.19770317  0.53066291    -0.30900
N2237       N  0.85780116  0.20798987  0.49959574     0.14100
H2238       H  0.86706697  0.20438231  0.55969640     0.16800
C2239       C  0.87300455  0.19814869  0.96767769    -0.30900
H2240       H  0.86902472  0.20637716  0.93924921     0.16800
H2241       H  0.96297971  0.23079546  0.93859737     0.16800
H2242       H  0.95267346  0.12125456  0.55805680     0.16800
H2243       H  0.96083021  0.23105468  0.55874435     0.16800
C2244       C  0.92458269  0.17752798  0.70823541     0.30700
C2245       C  0.92604520  0.17856992  0.78735883     0.30700
C2246       C  0.93567743  0.15121358  0.72821889    -0.05500
C2247       C  0.94305576  0.20082027  0.72653965    -0.06300
C2248       C  0.89559449  0.18257749  0.72818190    -0.06200
C2249       C  0.93672399  0.15188803  0.76802764    -0.05500
C2250       C  0.94343479  0.20158450  0.76667422    -0.06300
C2251       C  0.89607003  0.18260506  0.76863257    -0.06200
C2252       C  0.94999535  0.12777103  0.77993281    -0.31600
N2253       N  0.95644520  0.11233324  0.74854082     0.14900
C2254       C  0.94764791  0.12633944  0.71678514    -0.31600
H2255       H  0.95128467  0.11971309  0.68754736     0.16900
C2256       C  0.96054734  0.22382314  0.77709467    -0.30600
N2257       N  0.97131159  0.23579193  0.74487160     0.13600
C2258       C  0.96030427  0.22242811  0.71387969    -0.30600
C2259       C  0.87239415  0.19788218  0.78007328    -0.30900
N2260       N  0.85777477  0.20653913  0.74873150     0.14100
H2261       H  0.86776273  0.20474889  0.80893641     0.16800
C2262       C  0.87250388  0.19874834  0.71726051    -0.30900
H2263       H  0.86782342  0.20592830  0.68848743     0.16800
H2264       H  0.96510795  0.22779281  0.68443789     0.16800
H2265       H  0.95547887  0.12228478  0.80914957     0.16800
H2266       H  0.96519116  0.23071006  0.80593906     0.16800
C2267       C  0.86488912  0.42147256  0.95927614     0.30700
C2268       C  0.86597289  0.42314748  0.53841580     0.30700
C2269       C  0.89077675  0.43552404  0.97869466    -0.05500
C2270       C  0.83984448  0.43746460  0.97817653    -0.06300
C2271       C  0.86346177  0.39287994  0.97924578    -0.06200
C2272       C  0.89380801  0.43323884  0.51900617    -0.05500
C2273       C  0.84385069  0.44178211  0.51822981    -0.06300
C2274       C  0.86037413  0.39471203  0.51990662    -0.06200
C2275       C  0.91440591  0.45244223  0.52979948    -0.31600
N2276       N  0.92740673  0.46147884  0.99831765     0.14900
C2277       C  0.91378442  0.45148129  0.96687551    -0.31600
H2278       H  0.91940746  0.45675726  0.93767076     0.16900
C2279       C  0.82485886  0.46215987  0.52904895    -0.30600
N2280       N  0.80936074  0.47003814  0.99753359     0.13600
C2281       C  0.82149769  0.45831618  0.96628199    -0.30600
C2282       C  0.84350119  0.37264196  0.53166768    -0.30900
N2283       N  0.83877430  0.35590544  0.99978009     0.14100
H2284       H  0.83600700  0.36876207  0.56055929     0.16800
C2285       C  0.84853873  0.36930048  0.96823478    -0.30900
H2286       H  0.84190861  0.36438942  0.93924991     0.16800
H2287       H  0.81827286  0.46566738  0.93726271     0.16800
H2288       H  0.91825274  0.46011211  0.55852932     0.16800
H2289       H  0.82027618  0.46902960  0.55791674     0.16800
C2290       C  0.86589560  0.42262589  0.70909058     0.30700
C2291       C  0.86631193  0.42254265  0.78808447     0.30700
C2292       C  0.89561554  0.42730979  0.72795954    -0.05500
C2293       C  0.84876161  0.44594299  0.72858151    -0.06300
C2294       C  0.85501102  0.39611715  0.72877780    -0.06200
C2295       C  0.89602890  0.42680038  0.76877004    -0.05500
C2296       C  0.84913947  0.44603188  0.76865002    -0.06300
C2297       C  0.85488651  0.39624677  0.76850548    -0.06200
C2298       C  0.91803100  0.44468579  0.77966768    -0.31600
N2299       N  0.93073764  0.45561148  0.74825175     0.14900
C2300       C  0.91665320  0.44623318  0.71702406    -0.31600
H2301       H  0.91980077  0.45453265  0.68845306     0.16900
C2302       C  0.83310202  0.46844897  0.78030013    -0.30600
N2303       N  0.82235871  0.48118076  0.74866296     0.13600
C2304       C  0.83240801  0.46821315  0.71696731    -0.30600
C2305       C  0.84064866  0.37255870  0.78032070    -0.30900
N2306       N  0.83260000  0.35799885  0.74880289     0.14100
H2307       H  0.83539153  0.36691900  0.80954938     0.16800
C2308       C  0.84151365  0.37196692  0.71712842    -0.30900
H2309       H  0.83666769  0.36601289  0.68789563     0.16800
H2310       H  0.82747070  0.47419988  0.68779370     0.16800
H2311       H  0.92225606  0.45192259  0.80850390     0.16800
H2312       H  0.82876248  0.47466499  0.80950378     0.16800
O2313       O  0.97319863  0.47267094  0.97572585    -0.77800
C2314       C  0.51969333  0.02292484  0.89389373     0.83200
O2315       O  0.57066486  0.47746538  0.52031288    -0.79000
O2316       O  0.56614217  0.07438705  0.97707743    -0.80400
O2317       O  0.96691608  0.06935611  0.52028796    -0.80200
O2318       O  0.95342230  0.50035701  0.52041030    -0.78900
Zn2319     Zn  0.51305132  0.48922314  0.96625730     1.55700
O2320       O  0.49541018  0.08616058  0.97369580    -0.80300
Cd2321     Cd  0.98406571  0.03013653  0.52949334     1.59700
Cd2322     Cd  0.55404795  0.01653103  0.52986849     1.59600
O2323       O  0.99488135  0.02781241  0.58564990    -0.80300
O2324       O  0.51937728  0.02232276  0.99798883    -1.90800
Cd2325     Cd  0.52655847  0.05634097  0.96666913     1.59900
O2326       O  0.54187900  0.01781152  0.58560265    -0.80200
O2327       O  0.52533200  0.04566958  0.91080097    -0.78900
C2328       C  0.56571710  0.45812185  0.99658387     0.83700
C2329       C  0.95250139  0.47871747  0.99804723     0.83300
O2330       O  0.51442469  0.49996757  0.91139685    -0.77800
C2331       C  0.97340151  0.08889577  0.49707829     0.84100
O2332       O  0.54386418  0.45974447  0.97467750    -0.77900
C2333       C  0.51833048  0.02226172  0.60271698     0.84300
C2334       C  0.58646330  0.06832625  0.99996317     0.84600
O2335       O  0.58499065  0.04763859  0.52221725    -0.80300
O2336       O  0.54549422  0.46043787  0.77237323    -0.77800
C2337       C  0.51977138  0.02293555  0.85252193     0.83200
O2338       O  0.95369610  0.49596810  0.72545752    -0.79000
O2339       O  0.49509047  0.08627788  0.76898326    -0.80400
O2340       O  0.58472744  0.04680427  0.72395494    -0.80200
O2341       O  0.57198934  0.47834599  0.72542059    -0.78900
Zn2342     Zn  0.51402277  0.48876195  0.78039924     1.55700
O2343       O  0.56726399  0.07354893  0.77033762    -0.80300
Cd2344     Cd  0.55375210  0.01657408  0.71643209     1.59700
Cd2345     Cd  0.98393158  0.02784924  0.71822491     1.59600
O2346       O  0.54195068  0.01788072  0.66094473    -0.80300
O2347       O  0.51939101  0.02209300  0.74896763    -1.90800
Cd2348     Cd  0.52645813  0.05661589  0.77909147     1.59900
O2349       O  0.99487613  0.02655193  0.66177691    -0.80200
O2350       O  0.52401122  0.04596114  0.83533442    -0.78900
C2351       C  0.95407055  0.47516919  0.74829925     0.83700
C2352       C  0.56642604  0.45891270  0.74911928     0.83300
O2353       O  0.51512999  0.49962815  0.83480933    -0.77800
C2354       C  0.58719834  0.06718562  0.74699041     0.84100
O2355       O  0.97511583  0.47086994  0.77076200    -0.77900
C2356       C  0.51829946  0.02198219  0.64397123     0.84300
C2357       C  0.97330597  0.08742424  0.74867565     0.84600
O2358       O  0.96567117  0.06687782  0.72777560    -0.80300
C2359       C  0.61105108  0.36716215  0.95716221     0.30700
C2360       C  0.61151179  0.36771493  0.53625253     0.30700
C2361       C  0.60682515  0.39597214  0.97591714    -0.05500
C2362       C  0.58881368  0.34902547  0.97843350    -0.06300
C2363       C  0.63914877  0.35661845  0.97571763    -0.06200
C2364       C  0.60522695  0.39598850  0.51656672    -0.05500
C2365       C  0.58819186  0.34912497  0.51765349    -0.06300
C2366       C  0.63896449  0.35838822  0.51585600    -0.06200
C2367       C  0.58987300  0.41918595  0.52791538    -0.31600
N2368       N  0.58310258  0.43350821  0.99596410     0.14900
C2369       C  0.59066808  0.41869720  0.96458108    -0.31600
H2370       H  0.58335446  0.42311013  0.93575290     0.16900
C2371       C  0.56677772  0.33140386  0.53007902    -0.30600
N2372       N  0.55513921  0.32067682  0.00137450     0.13600
C2373       C  0.56809266  0.32968481  0.96885003    -0.30600
C2374       C  0.66366660  0.34514664  0.52742601    -0.30900
N2375       N  0.67865784  0.33466022  0.99537790     0.14100
H2376       H  0.67009914  0.34101582  0.55672057     0.16800
C2377       C  0.66255593  0.34106335  0.96409818    -0.30900
H2378       H  0.66701505  0.33397159  0.93528822     0.16800
H2379       H  0.56334138  0.32181792  0.94051701     0.16800
H2380       H  0.58370077  0.42434358  0.55693740     0.16800
H2381       H  0.56019320  0.32786671  0.55939991     0.16800
C2382       C  0.61298777  0.37001936  0.70714257     0.30700
C2383       C  0.61176477  0.36846209  0.78622915     0.30700
C2384       C  0.60898017  0.39831052  0.72754428    -0.05500
C2385       C  0.58853896  0.35265848  0.72528039    -0.06300
C2386       C  0.63945515  0.35784438  0.72702342    -0.06200
C2387       C  0.60846890  0.39739436  0.76797366    -0.05500
C2388       C  0.58824305  0.35140589  0.76540807    -0.06300
C2389       C  0.63884707  0.35697760  0.76694769    -0.06200
C2390       C  0.59243683  0.41985044  0.78006400    -0.31600
N2391       N  0.58410790  0.43468449  0.74908232     0.14900
C2392       C  0.59294451  0.42129612  0.71722654    -0.31600
H2393       H  0.58562823  0.42635238  0.68858883     0.16900
C2394       C  0.56794495  0.33171228  0.77537952    -0.30600
N2395       N  0.55511107  0.32214624  0.74297746     0.13600
C2396       C  0.56752718  0.33467956  0.71227485    -0.30600
C2397       C  0.66182961  0.34111020  0.77852922    -0.30900
N2398       N  0.67648256  0.33296309  0.74705772     0.14100
H2399       H  0.66672350  0.33456594  0.80751597     0.16800
C2400       C  0.66282966  0.34257322  0.71536093    -0.30900
H2401       H  0.66891166  0.33798147  0.68611472     0.16800
H2402       H  0.56263956  0.32982727  0.68270812     0.16800
H2403       H  0.58538104  0.42379658  0.80910119     0.16800
H2404       H  0.56350716  0.32395006  0.80391140     0.16800
C2405       C  0.68186749  0.11298912  0.53792031     0.30700
C2406       C  0.68012826  0.11261188  0.95873683     0.30700
C2407       C  0.68936769  0.14061246  0.51796375    -0.05500
C2408       C  0.70159741  0.09206812  0.51796497    -0.06300
C2409       C  0.65286501  0.10524137  0.51922058    -0.06200
C2410       C  0.68916675  0.14029204  0.97811398    -0.05500
C2411       C  0.70024405  0.09145939  0.97800688    -0.06300
C2412       C  0.65108841  0.10691149  0.97921031    -0.06200
C2413       C  0.69840878  0.16662964  0.96714093    -0.31600
N2414       N  0.70633633  0.18097219  0.99898963     0.14900
C2415       C  0.69999832  0.16588550  0.52986731    -0.31600
H2416       H  0.70537736  0.17158382  0.55903395     0.16900
C2417       C  0.71897683  0.07131990  0.96563337    -0.30600
N2418       N  0.72961294  0.05793450  0.99681097     0.13600
C2419       C  0.71967740  0.07092809  0.52898100    -0.30600
C2420       C  0.62473503  0.09603073  0.96871084    -0.30900
N2421       N  0.61163375  0.08560816  0.00033453     0.14100
H2422       H  0.61651729  0.09366552  0.93990440     0.16800
C2423       C  0.62860133  0.09112096  0.53120165    -0.30900
H2424       H  0.62413480  0.08385048  0.55997772     0.16800
H2425       H  0.72365366  0.06376994  0.55791742     0.16800
H2426       H  0.70072586  0.17448160  0.93822921     0.16800
H2427       H  0.72410164  0.06635843  0.93617055     0.16800
C2428       C  0.68217101  0.11208428  0.78795430     0.30700
C2429       C  0.68232425  0.11237705  0.70861361     0.30700
C2430       C  0.68550935  0.14079913  0.76843208    -0.05500
C2431       C  0.70539109  0.09462579  0.76829140    -0.06300
C2432       C  0.65441446  0.10140111  0.76812006    -0.06200
C2433       C  0.68598208  0.14076220  0.72834112    -0.05500
C2434       C  0.70567982  0.09463908  0.72828119    -0.06300
C2435       C  0.65509412  0.10057104  0.72796906    -0.06200
C2436       C  0.69583327  0.16652797  0.71670093    -0.31600
N2437       N  0.70079444  0.18225771  0.74829788     0.14900
C2438       C  0.69382875  0.16709544  0.77979502    -0.31600
H2439       H  0.69674496  0.17422247  0.80887359     0.16900
C2440       C  0.72693347  0.07627420  0.71741680    -0.30600
N2441       N  0.73983993  0.06619768  0.74946104     0.13600
C2442       C  0.72653487  0.07683523  0.78063549    -0.30600
C2443       C  0.63017474  0.08766591  0.71607169    -0.30900
N2444       N  0.61350606  0.08270440  0.74715610     0.14100
H2445       H  0.62462448  0.08193564  0.68698340     0.16800
C2446       C  0.62767715  0.09148567  0.77890269    -0.30900
H2447       H  0.61917101  0.08988942  0.80763656     0.16800
H2448       H  0.73156489  0.07158085  0.81007819     0.16800
H2449       H  0.70199688  0.17224941  0.68781811     0.16800
H2450       H  0.73209378  0.06973266  0.68859087     0.16800
O2451       O  0.74517316  0.26622487  0.91287042    -0.77800
C2452       C  0.72283494  0.20620365  0.99946688     0.83200
O2453       O  0.72272773  0.32448523  0.51931848    -0.79000
O2454       O  0.77107835  0.24861418  0.58678133    -0.80400
O2455       O  0.83283779  0.24361851  0.97523866    -0.80200
O2456       O  0.79240862  0.27403229  0.91073735    -0.78900
Zn2457     Zn  0.73409679  0.26472979  0.96760156     1.55700
O2458       O  0.81330743  0.22079811  0.52331194    -0.80300
Cd2459     Cd  0.80365890  0.27525828  0.96677117     1.59700
Cd2460     Cd  0.76172667  0.30554898  0.53062088     1.59600
O2461       O  0.82403766  0.31281736  0.97636229    -0.80300
O2462       O  0.76841669  0.27079081  0.99835623    -1.90800
Cd2463     Cd  0.77354826  0.23832886  0.53095151     1.59900
O2464       O  0.79523697  0.33377373  0.52343731    -0.80200
O2465       O  0.74280918  0.20850399  0.52166402    -0.78900
C2466       C  0.70379991  0.31750087  0.99608382     0.83700
C2467       C  0.76836607  0.27006001  0.89464214     0.83300
O2468       O  0.71649182  0.22617531  0.97682302    -0.77800
C2469       C  0.83354835  0.22597591  0.50000353     0.84100
O2470       O  0.70455893  0.29546670  0.97566630    -0.77900
C2471       C  0.81637552  0.33447244  0.50031611     0.84300
C2472       C  0.76588294  0.27122800  0.60397321     0.84600
O2473       O  0.76137729  0.29421235  0.58698233    -0.80300
O2474       O  0.71306715  0.22680439  0.72629280    -0.77800
C2475       C  0.70143559  0.31584114  0.74770796     0.83200
O2476       O  0.79010811  0.27430365  0.66146866    -0.79000
O2477       O  0.79324920  0.33289059  0.77141747    -0.80400
O2478       O  0.77119860  0.24693915  0.83656204    -0.80200
O2479       O  0.73994815  0.20717965  0.77164037    -0.78900
Zn2480     Zn  0.73189856  0.26448950  0.71718835     1.55700
O2481       O  0.76314520  0.29288070  0.83652794    -0.80300
Cd2482     Cd  0.77233051  0.23600924  0.78037683     1.59700
Cd2483     Cd  0.80148052  0.27542518  0.71730250     1.59600
O2484       O  0.81218740  0.21788599  0.77130636    -0.80300
O2485       O  0.76616110  0.26979643  0.74834957    -1.90800
Cd2486     Cd  0.76110556  0.30370449  0.78031133     1.59900
O2487       O  0.83177150  0.24461580  0.72606681    -0.80200
O2488       O  0.72160230  0.32182776  0.77094555    -0.78900
C2489       C  0.76618290  0.27081912  0.64489379     0.83700
C2490       C  0.71851040  0.20665598  0.74896345     0.83300
O2491       O  0.70278746  0.29491697  0.72543051    -0.77800
C2492       C  0.76741844  0.26993446  0.85365873     0.84100
O2493       O  0.74280746  0.26666512  0.66255289    -0.77900
C2494       C  0.83282147  0.22383813  0.74878846     0.84300
C2495       C  0.81464823  0.33380082  0.74881755     0.84600
O2496       O  0.82038251  0.31390956  0.72606004    -0.80300
C2497       C  0.70282746  0.12595510  0.89455401    -0.25700
C2498       C  0.68159133  0.11083798  0.91441660    -0.13700
C2499       C  0.66759305  0.08966662  0.89296389     0.36900
C2500       C  0.66801319  0.09075064  0.85253214    -0.25100
C2501       C  0.68414975  0.11080954  0.83233284    -0.14400
C2502       C  0.70533912  0.12513245  0.85436993     0.38000
N2503       N  0.73148976  0.13593751  0.83828210    -0.88600
H2504       H  0.71939094  0.13667944  0.91042016     0.19100
H2505       H  0.65764319  0.07416463  0.83694137     0.19100
N2506       N  0.65505806  0.06589426  0.91171716    -0.87600
H2507       H  0.73283247  0.15727716  0.84386128     0.36500
H2508       H  0.73303519  0.13275428  0.80886422     0.41600
H2509       H  0.67151535  0.05457554  0.92460586     0.41200
H2510       H  0.64538139  0.05254069  0.89185657     0.36100
C2511       C  0.65828045  0.12165925  0.60276297    -0.25700
C2512       C  0.68323553  0.11479589  0.58219217    -0.13700
C2513       C  0.70925360  0.11407363  0.60367320     0.36900
C2514       C  0.70823130  0.11262948  0.64393676    -0.25100
C2515       C  0.68233050  0.11431738  0.66434607    -0.14400
C2516       C  0.65790118  0.12281149  0.64318769     0.38000
N2517       N  0.63323246  0.13381366  0.66247820    -0.88600
H2518       H  0.63917417  0.12759832  0.58728936     0.19100
H2519       H  0.72831131  0.11217797  0.65935550     0.19100
N2520       N  0.73708799  0.11736591  0.58662819    -0.87600
H2521       H  0.61721104  0.13910454  0.64283226     0.36500
H2522       H  0.63945519  0.15232682  0.67590386     0.41600
H2523       H  0.73621265  0.12195074  0.55746447     0.41200
H2524       H  0.74858865  0.09897245  0.59059476     0.36100
C2525       C  0.63568588  0.37449451  0.89265534    -0.25700
C2526       C  0.61034318  0.36812675  0.91279223    -0.13700
C2527       C  0.58461675  0.36813630  0.89110043     0.36900
C2528       C  0.58563080  0.36753776  0.85070295    -0.25100
C2529       C  0.61168783  0.36911190  0.83056669    -0.14400
C2530       C  0.63641908  0.37617420  0.85226981     0.38000
N2531       N  0.66186624  0.38626425  0.83359758    -0.88600
H2532       H  0.65492204  0.37955895  0.90852531     0.19100
H2533       H  0.56560663  0.36737188  0.83509048     0.19100
N2534       N  0.55737959  0.37100535  0.90944157    -0.87600
H2535       H  0.67804853  0.39043685  0.85355345     0.36500
H2536       H  0.65685021  0.40523514  0.82051175     0.41600
H2537       H  0.54832312  0.38972824  0.90016925     0.41200
H2538       H  0.54401542  0.35493425  0.89983828     0.36100
C2539       C  0.62171725  0.39180546  0.60014483    -0.25700
C2540       C  0.61412596  0.36716506  0.58061291    -0.13700
C2541       C  0.61307632  0.34232966  0.60320519     0.36900
C2542       C  0.61233968  0.34418049  0.64344643    -0.25100
C2543       C  0.61511951  0.36968739  0.66284324    -0.14400
C2544       C  0.62355978  0.39303352  0.64051210     0.38000
N2545       N  0.63601860  0.41717617  0.65833753    -0.88600
H2546       H  0.62793785  0.41001039  0.58385632     0.19100
H2547       H  0.61072420  0.32507778  0.65987114     0.19100
N2548       N  0.61494708  0.31480046  0.58733611    -0.87600
H2549       H  0.64151633  0.43222026  0.63790044     0.36500
H2550       H  0.65511122  0.41093999  0.67144300     0.41600
H2551       H  0.61783036  0.31474938  0.55773459     0.41200
H2552       H  0.59609356  0.30412216  0.59388355     0.36100
C2553       C  0.80950940  0.02843495  0.73570972    -0.25700
C2554       C  0.80263204  0.00218275  0.75087906    -0.13700
C2555       C  0.77355802  0.49823394  0.76370023     0.36900
C2556       C  0.75496344  0.01912131  0.76583518    -0.25100
C2557       C  0.76169530  0.04526533  0.75040397    -0.14400
C2558       C  0.78948945  0.05018466  0.73560589     0.38000
N2559       N  0.79825695  0.07691772  0.72100994    -0.88600
H2560       H  0.83078922  0.03209261  0.72436768     0.19100
H2561       H  0.73363681  0.01539341  0.77697825     0.19100
N2562       N  0.76411017  0.47149796  0.77757606    -0.87600
H2563       H  0.81525748  0.08395105  0.73804039     0.36500
H2564       H  0.78207795  0.09167012  0.72393315     0.41600
H2565       H  0.77939113  0.45613484  0.77287780     0.41200
H2566       H  0.74635918  0.46553661  0.76116359     0.36100
C2567       C  0.79522480  0.01545247  0.97758247    -0.25700
C2568       C  0.78818895  0.99039165  0.99610158    -0.13700
C2569       C  0.76478795  0.49125584  0.51254537     0.36900
C2570       C  0.74439952  0.01221815  0.51411944    -0.25100
C2571       C  0.74956231  0.03530955  0.99620996    -0.14400
C2572       C  0.77615480  0.03801891  0.97753413     0.38000
N2573       N  0.78385557  0.06389116  0.95944540    -0.88600
H2574       H  0.81592802  0.01749961  0.96386864     0.19100
H2575       H  0.72347342  0.00993054  0.52716189     0.19100
N2576       N  0.75556770  0.46519285  0.52888811    -0.87600
H2577       H  0.80421090  0.06253213  0.94715389     0.36500
H2578       H  0.78517702  0.07905445  0.98087113     0.41600
H2579       H  0.77078723  0.44962320  0.52510547     0.41200
H2580       H  0.73751350  0.45857715  0.51358324     0.36100
C2581       C  0.88991923  0.41423304  0.85350377    -0.25700
C2582       C  0.86494792  0.42067847  0.83245066    -0.13700
C2583       C  0.83881607  0.42191086  0.85366365     0.36900
C2584       C  0.83955333  0.42207435  0.89397657    -0.25100
C2585       C  0.86524201  0.41996921  0.91490989    -0.14400
C2586       C  0.89006208  0.41292168  0.89391679     0.38000
N2587       N  0.91515429  0.40305079  0.91322478    -0.88600
H2588       H  0.90944937  0.40890615  0.83866649     0.19100
H2589       H  0.81931032  0.42242258  0.90894233     0.19100
N2590       N  0.81089350  0.42133543  0.83615444    -0.87600
H2591       H  0.93254602  0.41534244  0.90466533     0.36500
H2592       H  0.91905181  0.38273377  0.90390619     0.41600
H2593       H  0.81147416  0.41874302  0.80663177     0.41200
H2594       H  0.80072390  0.44022850  0.84200565     0.36100
C2595       C  0.83992918  0.42353715  0.60281258    -0.25700
C2596       C  0.86595154  0.42195263  0.58263637    -0.13700
C2597       C  0.89064800  0.41459903  0.60397680     0.36900
C2598       C  0.88991647  0.41525414  0.64430855    -0.25100
C2599       C  0.86464870  0.42104231  0.66480331    -0.14400
C2600       C  0.83871549  0.42234977  0.64311059     0.38000
N2601       N  0.81068883  0.42089373  0.66011419    -0.88600
H2602       H  0.81995799  0.42451572  0.58709994     0.19100
H2603       H  0.90920670  0.40984239  0.65971681     0.19100
N2604       N  0.91617546  0.40538529  0.58489062    -0.87600
H2605       H  0.80011675  0.43962440  0.65452865     0.36500
H2606       H  0.81126328  0.41802567  0.68964646     0.41600
H2607       H  0.91128076  0.38667704  0.57100512     0.41200
H2608       H  0.93240516  0.40093468  0.60462945     0.36100
C2609       C  0.98610430  0.28349648  0.72813189    -0.25700
C2610       C  0.99276131  0.25737490  0.74377215    -0.13700
C2611       C  0.52104994  0.25239723  0.75877982     0.36900
C2612       C  0.54113411  0.27409395  0.75784143    -0.25100
C2613       C  0.53434791  0.29994865  0.74155864    -0.14400
C2614       C  0.50689012  0.30389315  0.72534696     0.38000
N2615       N  0.49867219  0.33000543  0.70888715    -0.88600
H2616       H  0.96474840  0.28726799  0.71717021     0.19100
H2617       H  0.56227430  0.27081322  0.76984186     0.19100
N2618       N  0.52962866  0.22613783  0.77438456    -0.87600
H2619       H  0.01129070  0.33624562  0.68872821     0.36500
H2620       H  0.50180267  0.34558875  0.72939672     0.41600
H2621       H  0.52578076  0.21069544  0.75388495     0.41200
H2622       H  0.51717137  0.22196584  0.79847831     0.36100
C2623       C  0.51473012  0.25204729  0.51457188    -0.25700
C2624       C  0.48885427  0.25947275  0.99997464    -0.13700
C2625       C  0.98425558  0.28579101  0.98318261     0.36900
C2626       C  0.50667179  0.30559392  0.98313244    -0.25100
C2627       C  0.53242218  0.30038462  0.00270519    -0.14400
C2628       C  0.53690857  0.27163541  0.51534885     0.38000
N2629       N  0.56389263  0.26368215  0.53136297    -0.88600
H2630       H  0.51821573  0.23150993  0.52660269     0.19100
H2631       H  0.50362865  0.32544668  0.96890610     0.19100
N2632       N  0.95752613  0.29310887  0.96578604    -0.87600
H2633       H  0.56811413  0.27644154  0.55484180     0.36500
H2634       H  0.57979335  0.26699675  0.51072546     0.41600
H2635       H  0.94135991  0.29062042  0.98623946     0.41200
H2636       H  0.95345451  0.27949486  0.94310402     0.36100
C2637       C  0.95105060  0.18162829  0.89443136    -0.25700
C2638       C  0.92526850  0.17696735  0.91423965    -0.13700
C2639       C  0.90170057  0.16708632  0.89227862     0.36900
C2640       C  0.90256343  0.16857601  0.85193016    -0.25100
C2641       C  0.92722801  0.17719146  0.83183938    -0.14400
C2642       C  0.95274603  0.18035053  0.85410155     0.38000
N2643       N  0.98097178  0.17990196  0.83782748    -0.88600
H2644       H  0.97059129  0.18489272  0.91060350     0.19100
H2645       H  0.88410439  0.16126504  0.83608783     0.19100
N2646       N  0.87762089  0.15389680  0.91056521    -0.87600
H2647       H  0.99078130  0.19907155  0.84332400     0.36500
H2648       H  0.98088373  0.17628570  0.80843843     0.41600
H2649       H  0.88506209  0.13574796  0.92379854     0.41200
H2650       H  0.86229226  0.14765626  0.89041868     0.36100
C2651       C  0.95029397  0.17921920  0.64377811    -0.25700
C2652       C  0.92454381  0.17541276  0.66402333    -0.13700
C2653       C  0.90046812  0.16617843  0.64263021     0.36900
C2654       C  0.90095408  0.16761759  0.60228839    -0.25100
C2655       C  0.92557930  0.17589489  0.58183749    -0.14400
C2656       C  0.95144468  0.17863160  0.60345284     0.38000
N2657       N  0.97944336  0.17905926  0.58631998    -0.88600
H2658       H  0.97012809  0.18179160  0.65951713     0.19100
H2659       H  0.88215165  0.16078412  0.58677381     0.19100
N2660       N  0.87615780  0.15387766  0.66151241    -0.87600
H2661       H  0.98891634  0.19843411  0.59177945     0.36500
H2662       H  0.97897041  0.17594010  0.55685323     0.41600
H2663       H  0.88307878  0.13552893  0.67471555     0.41200
H2664       H  0.86037152  0.14813708  0.64171244     0.36100
C2665       C  0.92335399  0.67820524  0.45820584     0.30700
C2666       C  0.92511962  0.67643714  0.03724950     0.30700
C2667       C  0.93634872  0.65256612  0.47741201    -0.05500
C2668       C  0.93998016  0.70221208  0.47741605    -0.06300
C2669       C  0.89395864  0.68107060  0.47809667    -0.06200
C2670       C  0.93690123  0.65087649  0.01667409    -0.05500
C2671       C  0.94178264  0.70077482  0.01862495    -0.06300
C2672       C  0.89539602  0.67995498  0.01806546    -0.06200
C2673       C  0.94934808  0.62624305  0.02765662    -0.31600
N2674       N  0.95796778  0.61274565  0.99562640     0.14900
C2675       C  0.95029870  0.62899707  0.46531119    -0.35200
H2676       H  0.95486320  0.62322475  0.43596221     0.16900
C2677       C  0.95768101  0.72317868  0.03115020    -0.30600
N2678       N  0.96608419  0.73804684  0.49737095     0.13600
C2679       C  0.95634156  0.72459429  0.46570760    -0.30600
C2680       C  0.87207374  0.69555624  0.02970243    -0.30900
N2681       N  0.85831551  0.70560996  0.99858127     0.14100
H2682       H  0.86740219  0.70200184  0.05873915     0.16800
C2683       C  0.87131188  0.69801318  0.46793076    -0.30900
H2684       H  0.86716952  0.70629578  0.43957214     0.16800
H2685       H  0.96196496  0.72997144  0.43652932     0.16800
H2686       H  0.95323748  0.61931081  0.05675358     0.16800
H2687       H  0.96208596  0.72882542  0.06057700     0.16800
C2688       C  0.92385046  0.67625042  0.20791780     0.30700
C2689       C  0.92495746  0.67704027  0.28704536     0.30700
C2690       C  0.93469855  0.64985179  0.22784759    -0.05500
C2691       C  0.94236814  0.69940477  0.22651202    -0.06300
C2692       C  0.89476186  0.68136050  0.22763746    -0.06200
C2693       C  0.93554622  0.65036150  0.26766178    -0.05500
C2694       C  0.94258171  0.70001691  0.26664493    -0.06300
C2695       C  0.89508594  0.68129024  0.26811645    -0.06200
C2696       C  0.94876518  0.62620585  0.27946809    -0.31600
N2697       N  0.95537697  0.61095765  0.24797431     0.14900
C2698       C  0.94676450  0.62508648  0.21627706    -0.31600
H2699       H  0.95069746  0.61866400  0.18702039     0.16900
C2700       C  0.95998525  0.72196821  0.27738040    -0.30600
N2701       N  0.97104182  0.73396707  0.24534019     0.13600
C2702       C  0.95996322  0.72085762  0.21416079    -0.30600
C2703       C  0.87161259  0.69689124  0.27946966    -0.30900
N2704       N  0.85719399  0.70580397  0.24812467     0.14100
H2705       H  0.86704273  0.70385939  0.30830194     0.16800
C2706       C  0.87190319  0.69786149  0.21668615    -0.30900
H2707       H  0.86742594  0.70517851  0.18792320     0.16800
H2708       H  0.96501530  0.72621136  0.18478966     0.16800
H2709       H  0.95422911  0.62062422  0.30865890     0.16800
H2710       H  0.96468507  0.72857341  0.30633725     0.16800
C2711       C  0.86559037  0.92075469  0.45989393     0.30700
C2712       C  0.86462024  0.92179525  0.03881815     0.30700
C2713       C  0.89194070  0.93410559  0.47916737    -0.05500
C2714       C  0.84113444  0.93759947  0.47870329    -0.06300
C2715       C  0.86328015  0.89232038  0.48013123    -0.06200
C2716       C  0.89069240  0.93562646  0.01935425    -0.05500
C2717       C  0.83984604  0.93701395  0.01852923    -0.06300
C2718       C  0.86318591  0.89275522  0.02051843    -0.06200
C2719       C  0.91271963  0.95305879  0.03071942    -0.31600
N2720       N  0.92756229  0.96142830  0.49864407     0.14900
C2721       C  0.91444425  0.95071144  0.46725656    -0.31600
H2722       H  0.91984075  0.95612032  0.43801638     0.16900
C2723       C  0.82073409  0.95743810  0.02906794    -0.30600
N2724       N  0.81095381  0.97047534  0.49772654     0.13600
C2725       C  0.82299666  0.95852414  0.46658299    -0.30600
C2726       C  0.84676391  0.87019237  0.03190226    -0.30900
N2727       N  0.83811073  0.85577965  0.50099298     0.14100
H2728       H  0.83848897  0.86660968  0.06048546     0.16800
C2729       C  0.84801328  0.86892631  0.46932013    -0.30900
H2730       H  0.84138166  0.86392188  0.44036760     0.16800
H2731       H  0.81974690  0.96567145  0.43747181     0.16800
H2732       H  0.91768221  0.95938662  0.05976160     0.16800
H2733       H  0.81694947  0.96523953  0.05769024     0.16800
C2734       C  0.86592815  0.92213566  0.20972292     0.30700
C2735       C  0.86636872  0.92191274  0.28875043     0.30700
C2736       C  0.89571853  0.92646047  0.22856098    -0.05500
C2737       C  0.84902176  0.94558196  0.22934390    -0.06300
C2738       C  0.85487992  0.89572220  0.22936529    -0.06200
C2739       C  0.89610513  0.92591211  0.26940799    -0.05500
C2740       C  0.84943625  0.94559442  0.26941904    -0.06300
C2741       C  0.85471494  0.89578827  0.26908577    -0.06200
C2742       C  0.91815063  0.94369093  0.28038494    -0.31600
N2743       N  0.93092495  0.95461611  0.24903379     0.14900
C2744       C  0.91688839  0.94526783  0.21773058    -0.31600
H2745       H  0.92005865  0.95362242  0.18919746     0.16900
C2746       C  0.83364436  0.96812996  0.28119073    -0.30600
N2747       N  0.82290063  0.98098034  0.24963900     0.13600
C2748       C  0.83279753  0.96798545  0.21785894    -0.30600
C2749       C  0.84064838  0.87201284  0.28079416    -0.30900
N2750       N  0.83282168  0.85746644  0.24917766     0.14100
H2751       H  0.83539316  0.86626779  0.30998789     0.16800
C2752       C  0.84164556  0.87151828  0.21757695    -0.30900
H2753       H  0.83692921  0.86554742  0.18831261     0.16800
H2754       H  0.82779750  0.97400147  0.18871234     0.16800
H2755       H  0.92226709  0.95096892  0.30923084     0.16800
H2756       H  0.82940707  0.97431107  0.31043757     0.16800
O2757       O  0.97305353  0.97348110  0.47631774    -0.77800
C2758       C  0.51972460  0.52466813  0.39355094     0.83200
O2759       O  0.57094640  0.97666754  0.02086573    -0.79000
O2760       O  0.56592594  0.57517729  0.47684071    -0.80400
O2761       O  0.96787916  0.56829149  0.01852818    -0.80200
O2762       O  0.95345954  0.99975612  0.02136591    -0.78900
Zn2763     Zn  0.51265209  0.98988491  0.46673904     1.55700
O2764       O  0.49528481  0.58717212  0.47435003    -0.80300
Cd2765     Cd  0.98498814  0.52938436  0.02830864     1.59700
Cd2766     Cd  0.55446284  0.51672141  0.02919732     1.59600
O2767       O  0.99552103  0.52772559  0.08452991    -0.80300
O2768       O  0.51903535  0.52319565  0.49748749    -1.90800
Cd2769     Cd  0.52627751  0.55744869  0.46664228     1.59900
O2770       O  0.54234924  0.51777584  0.08512024    -0.80200
O2771       O  0.52505365  0.54744491  0.41053890    -0.78900
C2772       C  0.56435481  0.95767530  0.49789866     0.83700
C2773       C  0.95220168  0.97923116  0.49844735     0.83300
O2774       O  0.51453024  0.00106326  0.41215399    -0.77800
C2775       C  0.97447819  0.58783166  0.99543924     0.84100
O2776       O  0.54284716  0.95995668  0.47552740    -0.77900
C2777       C  0.51888942  0.52271933  0.10222023     0.84300
C2778       C  0.58623785  0.56879945  0.49953599     0.84600
O2779       O  0.58491275  0.54825992  0.02175109    -0.80300
O2780       O  0.54430277  0.96058440  0.27347369    -0.77800
C2781       C  0.51994870  0.52452843  0.35221155     0.83200
O2782       O  0.95373966  0.99497634  0.22596217    -0.79000
O2783       O  0.49622927  0.58686015  0.26795513    -0.80400
O2784       O  0.58579681  0.54577833  0.22379966    -0.80200
O2785       O  0.57097884  0.97778552  0.22618159    -0.78900
Zn2786     Zn  0.51343122  0.98959083  0.28155231     1.55700
O2787       O  0.56820231  0.57363897  0.26879363    -0.80300
Cd2788     Cd  0.55384762  0.51627263  0.21629792     1.59700
Cd2789     Cd  0.98392889  0.52705821  0.21722795     1.59600
O2790       O  0.54228788  0.51801762  0.16065341    -0.80300
O2791       O  0.51948738  0.52234483  0.24871464    -1.90800
Cd2792     Cd  0.52731913  0.55710172  0.27819594     1.59900
O2793       O  0.99507770  0.52622973  0.16072074    -0.80200
O2794       O  0.52494965  0.54729523  0.33474982    -0.78900
C2795       C  0.95400551  0.97446156  0.24930371     0.83700
C2796       C  0.56500555  0.95848976  0.24992252     0.83300
O2797       O  0.51489009  0.00090888  0.33581494    -0.77800
C2798       C  0.58829335  0.56661594  0.24607106     0.84100
O2799       O  0.97469855  0.97073654  0.27254059    -0.77900
C2800       C  0.51874608  0.52242556  0.14354250     0.84300
C2801       C  0.97260719  0.58636172  0.24792437     0.84600
O2802       O  0.96507243  0.56564271  0.22730113    -0.80300
C2803       C  0.61039471  0.86654735  0.45769574     0.30700
C2804       C  0.61290355  0.86721104  0.03684618     0.30700
C2805       C  0.60337942  0.89444072  0.47727472    -0.05500
C2806       C  0.58986811  0.84622971  0.47815491    -0.06300
C2807       C  0.63924711  0.85824877  0.47625831    -0.06200
C2808       C  0.60597982  0.89538978  0.01728936    -0.05500
C2809       C  0.58990987  0.84831216  0.01825256    -0.06300
C2810       C  0.64053541  0.85840812  0.01630376    -0.06200
C2811       C  0.59026645  0.91834341  0.02873773    -0.31600
N2812       N  0.58093858  0.93253180  0.49746399     0.14900
C2813       C  0.58836510  0.91780187  0.46588255    -0.31600
H2814       H  0.58201857  0.92297059  0.43687865     0.16900
C2815       C  0.56833766  0.83090516  0.03085244    -0.30600
N2816       N  0.55732232  0.81629980  0.49959787     0.13600
C2817       C  0.57009256  0.82630959  0.46755243    -0.30600
C2818       C  0.66535869  0.84520362  0.02761685    -0.30900
N2819       N  0.67826432  0.83553184  0.49596366     0.14100
H2820       H  0.67184509  0.84090511  0.05684196     0.16800
C2821       C  0.66238000  0.84231581  0.46471032    -0.30900
H2822       H  0.66658446  0.83495002  0.43595892     0.16800
H2823       H  0.56537110  0.81925117  0.43880889     0.16800
H2824       H  0.58408231  0.92341249  0.05778116     0.16800
H2825       H  0.56169409  0.82759271  0.06020108     0.16800
C2826       C  0.61207799  0.86930777  0.20782185     0.30700
C2827       C  0.61104802  0.86797540  0.28696783     0.30700
C2828       C  0.60685534  0.89743681  0.22814190    -0.05500
C2829       C  0.58844586  0.85097521  0.22617429    -0.06300
C2830       C  0.63908978  0.85832192  0.22769738    -0.06200
C2831       C  0.60649359  0.89662895  0.26848854    -0.05500
C2832       C  0.58823204  0.84988837  0.26633312    -0.06300
C2833       C  0.63862351  0.85755285  0.26765728    -0.06200
C2834       C  0.59055019  0.91908268  0.28070337    -0.31600
N2835       N  0.58204290  0.93382060  0.24970748     0.14900
C2836       C  0.59071605  0.92034202  0.21779022    -0.31600
H2837       H  0.58354321  0.92549632  0.18912110     0.16900
C2838       C  0.56789692  0.83027409  0.27658432    -0.30600
N2839       N  0.55504556  0.82052183  0.24430371     0.13600
C2840       C  0.56744490  0.83287491  0.21342386    -0.30600
C2841       C  0.66196255  0.84208567  0.27911199    -0.30900
N2842       N  0.67664269  0.83410973  0.24754720     0.14100
H2843       H  0.66696079  0.83552068  0.30805975     0.16800
C2844       C  0.66266448  0.84339715  0.21594599    -0.30900
H2845       H  0.66854627  0.83861398  0.18668479     0.16800
H2846       H  0.56220440  0.82818396  0.18390718     0.16800
H2847       H  0.58394029  0.92327947  0.30986114     0.16800
H2848       H  0.56315477  0.82297257  0.30525427     0.16800
C2849       C  0.68123492  0.61359976  0.03727216     0.30700
C2850       C  0.68013118  0.61346972  0.45798624     0.30700
C2851       C  0.68964184  0.64086272  0.01711516    -0.05500
C2852       C  0.70021026  0.59196978  0.01757931    -0.06300
C2853       C  0.65197760  0.60676889  0.01861993    -0.06200
C2854       C  0.68748317  0.64153407  0.47752505    -0.05500
C2855       C  0.70144420  0.59346019  0.47717067    -0.06300
C2856       C  0.65149806  0.60607140  0.47835511    -0.06200
C2857       C  0.69615986  0.66804190  0.46663907    -0.31600
N2858       N  0.70365006  0.68249957  0.49856188     0.14900
C2859       C  0.70034671  0.66608007  0.02897589    -0.31600
H2860       H  0.70551920  0.67189043  0.05816766     0.16900
C2861       C  0.72106031  0.57415687  0.46472523    -0.30600
N2862       N  0.73215127  0.56114147  0.49589528     0.13600
C2863       C  0.71789714  0.57061610  0.02891676    -0.30600
C2864       C  0.62501474  0.59553384  0.46786828    -0.30900
N2865       N  0.61168019  0.58560755  0.49963880     0.14100
H2866       H  0.61674211  0.59326899  0.43906345     0.16800
C2867       C  0.62810222  0.59191186  0.03032468    -0.30900
H2868       H  0.62395128  0.58411295  0.05892563     0.16800
H2869       H  0.72200675  0.56382899  0.05799289     0.16800
H2870       H  0.69882061  0.67581676  0.43774495     0.16800
H2871       H  0.72631203  0.56933790  0.43525571     0.16800
C2872       C  0.68228619  0.61354628  0.28725019     0.30700
C2873       C  0.68263102  0.61382735  0.20792302     0.30700
C2874       C  0.68431949  0.64238608  0.26778301    -0.05500
C2875       C  0.70633114  0.59715037  0.26767394    -0.06300
C2876       C  0.65510987  0.60167510  0.26727443    -0.06200
C2877       C  0.68493171  0.64236253  0.22764717    -0.05500
C2878       C  0.70670318  0.59714005  0.22768304    -0.06300
C2879       C  0.65591581  0.60081832  0.22714460    -0.06200
C2880       C  0.69506320  0.66806868  0.21619578    -0.31600
N2881       N  0.69981441  0.68379203  0.24783691     0.14900
C2882       C  0.69260527  0.66866515  0.27923212    -0.31600
H2883       H  0.69556932  0.67572229  0.30832575     0.16900
C2884       C  0.72819691  0.57904281  0.21693680    -0.30600
N2885       N  0.74131858  0.56930264  0.24901701     0.13600
C2886       C  0.72777472  0.57977628  0.28011852    -0.30600
C2887       C  0.63133410  0.58729003  0.21513891    -0.30900
N2888       N  0.61472499  0.58197563  0.24618947     0.14100
H2889       H  0.62583503  0.58168961  0.18598629     0.16800
C2890       C  0.62859810  0.59117499  0.27794118    -0.30900
H2891       H  0.61993759  0.58972369  0.30660716     0.16800
H2892       H  0.73263170  0.57442844  0.30958417     0.16800
H2893       H  0.70177870  0.67364817  0.18748024     0.16800
H2894       H  0.73318386  0.57219682  0.18819017     0.16800
O2895       O  0.74471295  0.76718830  0.41258298    -0.77800
C2896       C  0.72060534  0.70740872  0.49907045     0.83200
O2897       O  0.72465996  0.82459559  0.01843393    -0.79000
O2898       O  0.77130787  0.74808449  0.08662830    -0.80400
O2899       O  0.83167974  0.74379305  0.47634018    -0.80200
O2900       O  0.79206964  0.77425883  0.41106706    -0.78900
Zn2901     Zn  0.73321838  0.76558586  0.46721415     1.55700
O2902       O  0.81426952  0.71935086  0.02343265    -0.80300
Cd2903     Cd  0.80272136  0.77544782  0.46739555     1.59700
Cd2904     Cd  0.76343878  0.80504392  0.02974328     1.59600
O2905       O  0.82316421  0.81283922  0.47746279    -0.80300
O2906       O  0.76731217  0.77107271  0.49858437    -1.90800
Cd2907     Cd  0.77452475  0.73753822  0.03078516     1.59900
O2908       O  0.79778491  0.83244931  0.02262677    -0.80200
O2909       O  0.74351764  0.70815673  0.02083935    -0.78900
C2910       C  0.70322467  0.81818062  0.49649654     0.83700
C2911       C  0.76809176  0.77064337  0.39463354     0.83300
O2912       O  0.71492629  0.72734164  0.47606187    -0.77800
C2913       C  0.83408227  0.72371480  0.99910818     0.84100
O2914       O  0.70396202  0.79645818  0.47546786    -0.77900
C2915       C  0.81940651  0.83233465  0.00025776     0.84300
C2916       C  0.76626138  0.77089154  0.10348780     0.84600
O2917       O  0.76243705  0.79386212  0.08615651    -0.80300
O2918       O  0.71257492  0.72821461  0.22617259    -0.77800
C2919       C  0.70156943  0.81692339  0.24791487     0.83200
O2920       O  0.79014921  0.77406433  0.16119698    -0.79000
O2921       O  0.79332357  0.83266306  0.27137332    -0.80400
O2922       O  0.77124041  0.74749356  0.33650211    -0.80200
O2923       O  0.73936651  0.70807558  0.27125080    -0.78900
Zn2924     Zn  0.73178451  0.76552126  0.21681775     1.55700
O2925       O  0.76300250  0.79338228  0.33643416    -0.80300
Cd2926     Cd  0.77215948  0.73644086  0.28022274     1.59700
Cd2927     Cd  0.80146822  0.77524577  0.21704566     1.59600
O2928       O  0.81185039  0.71784172  0.27101357    -0.80300
O2929       O  0.76607458  0.77015987  0.24809758    -1.90800
Cd2930     Cd  0.76101876  0.80398136  0.28021753     1.59900
O2931       O  0.83157188  0.74417336  0.22548968    -0.80200
O2932       O  0.72173752  0.82261180  0.27125881    -0.78900
C2933       C  0.76625494  0.77082015  0.14445924     0.83700
C2934       C  0.71784220  0.70793961  0.24868090     0.83300
O2935       O  0.70289458  0.79619717  0.22527696    -0.77800
C2936       C  0.76737953  0.77048608  0.35360446     0.84100
O2937       O  0.74272098  0.76724687  0.16201188    -0.77900
C2938       C  0.83246493  0.72343809  0.24828112     0.84300
C2939       C  0.81482310  0.83338777  0.24898677     0.84600
O2940       O  0.82056219  0.81351391  0.22619512    -0.80300
C2941       C  0.70249160  0.62762258  0.39398789    -0.25700
C2942       C  0.68165513  0.61191073  0.41369885    -0.13700
C2943       C  0.66827705  0.59044902  0.39213914     0.36900
C2944       C  0.66865438  0.59168593  0.35172038    -0.25100
C2945       C  0.68424065  0.61223231  0.33164265    -0.14400
C2946       C  0.70503284  0.62702569  0.35380386     0.38000
N2947       N  0.73090784  0.63855220  0.33785289    -0.88600
H2948       H  0.71872977  0.63871700  0.40998506     0.19100
H2949       H  0.65877880  0.57485737  0.33605845     0.19100
N2950       N  0.65652005  0.56626519  0.41079631    -0.87600
H2951       H  0.73175849  0.65986573  0.34378488     0.36500
H2952       H  0.73250789  0.63567358  0.30838687     0.41600
H2953       H  0.67336213  0.55550267  0.42372804     0.41200
H2954       H  0.64737055  0.55262267  0.39086316     0.36100
C2955       C  0.65792334  0.62222041  0.10232294    -0.25700
C2956       C  0.68283833  0.61563271  0.08150193    -0.13700
C2957       C  0.70903280  0.61516620  0.10265856     0.36900
C2958       C  0.70831510  0.61416096  0.14296349    -0.25100
C2959       C  0.68253201  0.61573593  0.16366241    -0.14400
C2960       C  0.65782405  0.62365706  0.14271667     0.38000
N2961       N  0.63305498  0.63423603  0.16222858    -0.88600
H2962       H  0.63859308  0.62774888  0.08707833     0.19100
H2963       H  0.72851209  0.61400614  0.15810700     0.19100
N2964       N  0.73677975  0.61790071  0.08515078    -0.87600
H2965       H  0.61674545  0.63900028  0.14275417     0.36500
H2966       H  0.63893461  0.65299604  0.17527154     0.41600
H2967       H  0.73576833  0.62180466  0.05581886     0.41200
H2968       H  0.74809875  0.59945882  0.08963942     0.36100
C2969       C  0.63484116  0.87503233  0.39324684    -0.25700
C2970       C  0.60967220  0.86807319  0.41340391    -0.13700
C2971       C  0.58392395  0.86747800  0.39183984     0.36900
C2972       C  0.58489573  0.86693267  0.35143851    -0.25100
C2973       C  0.61092906  0.86891430  0.33127371    -0.14400
C2974       C  0.63547913  0.87668736  0.35287418     0.38000
N2975       N  0.66059329  0.88746401  0.33410875    -0.88600
H2976       H  0.65397635  0.88055045  0.40904485     0.19100
H2977       H  0.56486984  0.86629844  0.33585451     0.19100
N2978       N  0.55666960  0.86935453  0.41040658    -0.87600
H2979       H  0.67662738  0.89223108  0.35403091     0.36500
H2980       H  0.65496454  0.90621395  0.32087005     0.41600
H2981       H  0.54691963  0.88779508  0.40133254     0.41200
H2982       H  0.54384251  0.85287530  0.40081069     0.36100
C2983       C  0.62201378  0.89129466  0.10104125    -0.25700
C2984       C  0.61522384  0.86657337  0.08124267    -0.13700
C2985       C  0.61402081  0.84171225  0.10377898     0.36900
C2986       C  0.61235033  0.84353478  0.14399187    -0.25100
C2987       C  0.61439861  0.86907234  0.16351412    -0.14400
C2988       C  0.62293766  0.89254807  0.14145777     0.38000
N2989       N  0.63444376  0.91696497  0.15970076    -0.88600
H2990       H  0.62823435  0.90960019  0.08496238     0.19100
H2991       H  0.61066836  0.82439841  0.16033563     0.19100
N2992       N  0.61659183  0.81423849  0.08788032    -0.87600
H2993       H  0.63998600  0.93213861  0.13946336     0.36500
H2994       H  0.65340705  0.91117275  0.17350553     0.41600
H2995       H  0.62002227  0.81430887  0.05849452     0.41200
H2996       H  0.59768224  0.80326852  0.09369603     0.36100
C2997       C  0.80923262  0.52946243  0.23142366    -0.25700
C2998       C  0.80288665  0.50422466  0.24989872    -0.13700
C2999       C  0.77462394  0.99868029  0.26637018     0.36900
C3000       C  0.75684357  0.52308561  0.26883972    -0.25100
C3001       C  0.76298906  0.54819308  0.25005580    -0.14400
C3002       C  0.78974767  0.55164340  0.23151921     0.38000
N3003       N  0.79808858  0.57733562  0.21334744    -0.88600
H3004       H  0.82976185  0.53204128  0.21738491     0.19100
H3005       H  0.73624579  0.52039040  0.28266153     0.19100
N3006       N  0.76527455  0.97222894  0.28137110    -0.87600
H3007       H  0.81658137  0.58452446  0.22716673     0.36500
H3008       H  0.78277704  0.59279795  0.21735784     0.41600
H3009       H  0.78003096  0.95656075  0.27570672     0.41200
H3010       H  0.74680296  0.96642105  0.26634134     0.36100
C3011       C  0.79919534  0.52050725  0.47858013    -0.25700
C3012       C  0.79221040  0.49502080  0.49598914    -0.13700
C3013       C  0.76114380  0.98753033  0.01409007     0.36900
C3014       C  0.74296304  0.51180007  0.01540020    -0.25100
C3015       C  0.75256278  0.53896704  0.49532543    -0.14400
C3016       C  0.77963631  0.54266004  0.47831081     0.38000
N3017       N  0.78730213  0.56909174  0.46179776    -0.88600
H3018       H  0.82022115  0.52319824  0.46598447     0.19100
H3019       H  0.72227657  0.50959569  0.02913681     0.19100
N3020       N  0.75163697  0.96182602  0.03120196    -0.87600
H3021       H  0.80809539  0.56845328  0.45075200     0.36500
H3022       H  0.78753521  0.58377258  0.48391475     0.41600
H3023       H  0.76624955  0.94580943  0.02670427     0.41200
H3024       H  0.73295084  0.95565880  0.01693101     0.36100
C3025       C  0.89004966  0.91320180  0.35400001    -0.25700
C3026       C  0.86507246  0.91992880  0.33312905    -0.13700
C3027       C  0.83902337  0.92131707  0.35452080     0.36900
C3028       C  0.83991955  0.92137483  0.39484135    -0.25100
C3029       C  0.86569832  0.91911828  0.41555940    -0.14400
C3030       C  0.89035108  0.91187333  0.39439855     0.38000
N3031       N  0.91543071  0.90181142  0.41353398    -0.88600
H3032       H  0.90946986  0.90770826  0.33902646     0.19100
H3033       H  0.81975397  0.92190551  0.41000027     0.19100
N3034       N  0.81104323  0.92104860  0.33717800    -0.87600
H3035       H  0.93286397  0.91404366  0.40497166     0.36500
H3036       H  0.91917634  0.88149183  0.40410672     0.41600
H3037       H  0.81154380  0.91855593  0.30763170     0.41200
H3038       H  0.80108707  0.94002124  0.34320429     0.36100
C3039       C  0.83902906  0.92239046  0.10383508    -0.25700
C3040       C  0.86481885  0.92075056  0.08312148    -0.13700
C3041       C  0.88977583  0.91373122  0.10409387     0.36900
C3042       C  0.88948061  0.91464644  0.14449023    -0.25100
C3043       C  0.86439742  0.92048827  0.16541548    -0.14400
C3044       C  0.83825003  0.92163359  0.14415602     0.38000
N3045       N  0.81037145  0.92044621  0.16164451    -0.88600
H3046       H  0.81882773  0.92278696  0.08867500     0.19100
H3047       H  0.90896423  0.90946347  0.15960497     0.19100
N3048       N  0.91522961  0.90488786  0.08449820    -0.87600
H3049       H  0.79985132  0.93918641  0.15592733     0.36500
H3050       H  0.81115373  0.91782671  0.19120380     0.41600
H3051       H  0.91056785  0.88599465  0.07096607     0.41200
H3052       H  0.93176280  0.90084580  0.10395094     0.36100
C3053       C  0.98682166  0.78142972  0.22865109    -0.25700
C3054       C  0.99286255  0.75525263  0.24457428    -0.13700
C3055       C  0.51934214  0.75127968  0.25839879     0.36900
C3056       C  0.53994250  0.77255720  0.25803414    -0.25100
C3057       C  0.53356225  0.79895236  0.24317118    -0.14400
C3058       C  0.50588877  0.80399565  0.22827120     0.38000
N3059       N  0.49808410  0.83075512  0.21351622    -0.88600
H3060       H  0.96564520  0.78550086  0.21727479     0.19100
H3061       H  0.56120559  0.76847013  0.26912453     0.19100
N3062       N  0.52754776  0.72436034  0.27211534    -0.87600
H3063       H  0.01311568  0.83350151  0.18899925     0.36500
H3064       H  0.50195253  0.84563185  0.23478522     0.41600
H3065       H  0.52313292  0.70972232  0.25072609     0.41200
H3066       H  0.51525294  0.71958248  0.29616959     0.36100
C3067       C  0.51542304  0.75219094  0.01573474    -0.25700
C3068       C  0.48905844  0.75758554  0.49863927    -0.13700
C3069       C  0.98402203  0.78549971  0.48238119     0.36900
C3070       C  0.50807115  0.80336251  0.48300636    -0.25100
C3071       C  0.53433266  0.79643777  0.50005631    -0.14400
C3072       C  0.53794109  0.77139497  0.01564668     0.38000
N3073       N  0.56536777  0.76275895  0.02948652    -0.88600
H3074       H  0.51901405  0.73134427  0.02663821     0.19100
H3075       H  0.50526192  0.82382641  0.47043956     0.19100
N3076       N  0.95707091  0.79350288  0.46624403    -0.87600
H3077       H  0.57088799  0.77527364  0.05282905     0.36500
H3078       H  0.58041273  0.76594850  0.00776415     0.41600
H3079       H  0.94121676  0.79042352  0.48698118     0.41200
H3080       H  0.95260315  0.78053663  0.44295186     0.36100
C3081       C  0.94968161  0.68007826  0.39416427    -0.25700
C3082       C  0.92366472  0.67647342  0.41387588    -0.13700
C3083       C  0.89987687  0.66708652  0.39195499     0.36900
C3084       C  0.90100450  0.66795977  0.35160068    -0.25100
C3085       C  0.92598190  0.67566213  0.33152582    -0.14400
C3086       C  0.95149816  0.67833799  0.35387853     0.38000
N3087       N  0.97975112  0.67713041  0.33775778    -0.88600
H3088       H  0.96924341  0.68300301  0.41042214     0.19100
H3089       H  0.88244311  0.66087348  0.33579756     0.19100
N3090       N  0.87530026  0.65485894  0.41028909    -0.87600
H3091       H  0.99006822  0.69600770  0.34339945     0.36500
H3092       H  0.97963355  0.67371399  0.30830183     0.41600
H3093       H  0.88206018  0.63659458  0.42387950     0.41200
H3094       H  0.85980724  0.64896966  0.39017302     0.36100
C3095       C  0.95022403  0.67743251  0.14395250    -0.25700
C3096       C  0.92418699  0.67407425  0.16370387    -0.13700
C3097       C  0.90027900  0.66489357  0.14192000     0.36900
C3098       C  0.90130828  0.66590879  0.10156232    -0.25100
C3099       C  0.92620851  0.67393264  0.08153836    -0.14400
C3100       C  0.95184878  0.67655229  0.10366171     0.38000
N3101       N  0.98004582  0.67660286  0.08710144    -0.88600
H3102       H  0.96989758  0.67991432  0.16007918     0.19100
H3103       H  0.88267710  0.65903230  0.08572871     0.19100
N3104       N  0.87554603  0.65312486  0.16044639    -0.87600
H3105       H  0.98976947  0.69581829  0.09282239     0.36500
H3106       H  0.97983113  0.67358430  0.05760417     0.41600
H3107       H  0.88201564  0.63481456  0.17416068     0.41200
H3108       H  0.85994206  0.64740058  0.14038385     0.36100
C3109       C  0.92522133  0.67809197  0.95817509     0.30700
C3110       C  0.92427146  0.67775128  0.53728438     0.30700
C3111       C  0.93732932  0.65185391  0.97688982    -0.05500
C3112       C  0.94213268  0.70144471  0.97848111    -0.06300
C3113       C  0.89565799  0.68125263  0.97749241    -0.06200
C3114       C  0.93645690  0.65218844  0.51719339    -0.05500
C3115       C  0.94007549  0.70220234  0.51758093    -0.06300
C3116       C  0.89422834  0.68029303  0.51873460    -0.06200
C3117       C  0.94959623  0.62798333  0.52860664    -0.31600
N3118       N  0.95803917  0.61415767  0.49676433     0.14900
C3119       C  0.95092542  0.62818345  0.96441632    -0.35200
H3120       H  0.95587305  0.62283164  0.93502602     0.16900
C3121       C  0.95598538  0.72487224  0.52903328    -0.30600
N3122       N  0.96801741  0.73694165  0.00011375     0.13600
C3123       C  0.95854770  0.72407336  0.96785321    -0.30600
C3124       C  0.87092350  0.69584119  0.53059158    -0.30900
N3125       N  0.85678066  0.70553231  0.49960184     0.14100
H3126       H  0.86662704  0.70264367  0.55958061     0.16800
C3127       C  0.87315889  0.69828161  0.96705259    -0.30900
H3128       H  0.86926016  0.70662111  0.93866390     0.16800
H3129       H  0.96417206  0.73021991  0.93896519     0.16800
H3130       H  0.95389643  0.62150566  0.55779749     0.16800
H3131       H  0.96081418  0.73093650  0.55818150     0.16800
C3132       C  0.92513509  0.67757163  0.70801238     0.30700
C3133       C  0.92678752  0.67863858  0.78712543     0.30700
C3134       C  0.93606497  0.65121947  0.72794899    -0.05500
C3135       C  0.94381709  0.70068738  0.72625981    -0.06300
C3136       C  0.89623167  0.68276323  0.72811985    -0.06200
C3137       C  0.93722243  0.65190156  0.76776082    -0.05500
C3138       C  0.94422502  0.70156259  0.76638824    -0.06300
C3139       C  0.89681632  0.68280116  0.76853814    -0.06200
C3140       C  0.95020828  0.62766568  0.77962703    -0.31600
N3141       N  0.95637540  0.61217910  0.74819740     0.14900
C3142       C  0.94768798  0.62624049  0.71646121    -0.31600
H3143       H  0.95120126  0.61957174  0.68721289     0.16900
C3144       C  0.96110437  0.72401164  0.77668151    -0.30600
N3145       N  0.97182794  0.73582222  0.74436448     0.13600
C3146       C  0.96100194  0.72223504  0.71347106    -0.30600
C3147       C  0.87303026  0.69780768  0.78017649    -0.30900
N3148       N  0.85821460  0.70629248  0.74890889     0.14100
H3149       H  0.86842985  0.70460745  0.80908100     0.16800
C3150       C  0.87294101  0.69866423  0.71733277    -0.30900
H3151       H  0.86809385  0.70577487  0.68857811     0.16800
H3152       H  0.96552500  0.72772474  0.68399478     0.16800
H3153       H  0.95572495  0.62212992  0.80881616     0.16800
H3154       H  0.96572883  0.73107757  0.80544511     0.16800
C3155       C  0.86555517  0.92045707  0.95986334     0.30700
C3156       C  0.86519329  0.92203913  0.53890858     0.30700
C3157       C  0.89124648  0.93475340  0.97939100    -0.05500
C3158       C  0.84030723  0.93643917  0.97832791    -0.06300
C3159       C  0.86410715  0.89196854  0.98007648    -0.06200
C3160       C  0.89157132  0.93499969  0.51917019    -0.05500
C3161       C  0.84091026  0.93812289  0.51890469    -0.06300
C3162       C  0.86266966  0.89307130  0.52055295    -0.06200
C3163       C  0.91325894  0.95283931  0.53032864    -0.31600
N3164       N  0.92716969  0.96163199  0.99907357     0.14900
C3165       C  0.91394467  0.95114318  0.96762403    -0.31600
H3166       H  0.91961179  0.95634703  0.93840901     0.16900
C3167       C  0.82253890  0.95909140  0.52970839    -0.30600
N3168       N  0.80881564  0.96832485  0.99698592     0.13600
C3169       C  0.82144488  0.95670833  0.96599327    -0.30600
C3170       C  0.84614795  0.87062118  0.53212491    -0.30900
N3171       N  0.83901068  0.85530087  0.00073513     0.14100
H3172       H  0.83817952  0.86697791  0.56084887     0.16800
C3173       C  0.84907240  0.86844384  0.96917278    -0.30900
H3174       H  0.84254721  0.86343785  0.94017566     0.16800
H3175       H  0.81820212  0.96379235  0.93685321     0.16800
H3176       H  0.91794721  0.95962289  0.55925816     0.16800
H3177       H  0.81891760  0.96672867  0.55845537     0.16800
C3178       C  0.86726644  0.92223254  0.70983774     0.30700
C3179       C  0.86796334  0.92156200  0.78883166     0.30700
C3180       C  0.89706464  0.92671621  0.72856950    -0.05500
C3181       C  0.85020056  0.94543648  0.72979367    -0.06300
C3182       C  0.85659362  0.89554158  0.72923941    -0.06200
C3183       C  0.89762961  0.92591237  0.76941830    -0.05500
C3184       C  0.85070412  0.94521469  0.76983301    -0.06300
C3185       C  0.85664517  0.89536700  0.76894604    -0.06200
C3186       C  0.91971328  0.94364116  0.78041537    -0.31600
N3187       N  0.93227982  0.95476808  0.74903817     0.14900
C3188       C  0.91808178  0.94565358  0.71776500    -0.31600
H3189       H  0.92107735  0.95422708  0.68931785     0.16900
C3190       C  0.83466497  0.96756393  0.78191313    -0.30600
N3191       N  0.82381787  0.98060255  0.75054353     0.13600
C3192       C  0.83379533  0.96783208  0.71862064    -0.30600
C3193       C  0.84303672  0.87129893  0.78054044    -0.30900
N3194       N  0.83509922  0.85684783  0.74888442     0.14100
H3195       H  0.83798274  0.86537493  0.80972943     0.16800
C3196       C  0.84356031  0.87121996  0.71733902    -0.30900
H3197       H  0.83861073  0.86544527  0.68806934     0.16800
H3198       H  0.82874118  0.97399464  0.68955120     0.16800
H3199       H  0.92403063  0.95071475  0.80930439     0.16800
H3200       H  0.83036907  0.97348686  0.81124766     0.16800
O3201       O  0.97282593  0.97299896  0.97633652    -0.77800
C3202       C  0.51947543  0.52254254  0.89350106     0.83200
O3203       O  0.57148031  0.97722709  0.52076338    -0.79000
O3204       O  0.56638073  0.57449288  0.97531295    -0.80400
O3205       O  0.96784549  0.56963230  0.51968682    -0.80200
O3206       O  0.95292813  0.00010108  0.52088328    -0.78900
Zn3207     Zn  0.51221500  0.98950335  0.96670889     1.55700
O3208       O  0.49575742  0.58630743  0.97311408    -0.80300
Cd3209     Cd  0.98466973  0.53039327  0.52880301     1.59700
Cd3210     Cd  0.55364462  0.51683454  0.52963238     1.59600
O3211       O  0.99544669  0.52828420  0.58496191    -0.80300
O3212       O  0.51972899  0.52237368  0.99704388    -1.90800
Cd3213     Cd  0.52671852  0.55638551  0.96574056     1.59900
O3214       O  0.54186320  0.51849659  0.58560011    -0.80200
O3215       O  0.52488581  0.54542031  0.91018601    -0.78900
C3216       C  0.56382858  0.95711894  0.99795882     0.83700
C3217       C  0.95221058  0.97897009  0.99881654     0.83300
O3218       O  0.51412666  0.00039922  0.91168818    -0.77800
C3219       C  0.97450275  0.58921269  0.49665468     0.84100
O3220       O  0.54229787  0.95935600  0.97557237    -0.77900
C3221       C  0.51838570  0.52316879  0.60277111     0.84300
C3222       C  0.58638916  0.56905425  0.99896694     0.84600
O3223       O  0.58477078  0.54756989  0.52154440    -0.80300
O3224       O  0.54603613  0.96075700  0.77255927    -0.77800
C3225       C  0.51934787  0.52247712  0.85223460     0.83200
O3226       O  0.95441204  0.99567337  0.72688605    -0.79000
O3227       O  0.49471902  0.58582695  0.76952475    -0.80400
O3228       O  0.58455241  0.54682219  0.72467353    -0.80200
O3229       O  0.57236472  0.97838421  0.72526790    -0.78900
Zn3230     Zn  0.51459255  0.98909415  0.78062024     1.55700
O3231       O  0.56689638  0.57371677  0.77070159    -0.80300
Cd3232     Cd  0.55352884  0.51664603  0.71671696     1.59700
Cd3233     Cd  0.98365433  0.52792819  0.71733144     1.59600
O3234       O  0.54191649  0.51854258  0.66111930    -0.80300
O3235       O  0.51903181  0.52188198  0.74901168    -1.90800
Cd3236     Cd  0.52618882  0.55635412  0.77917859     1.59900
O3237       O  0.99507254  0.52701669  0.66101193    -0.80200
O3238       O  0.52376904  0.54546811  0.83509795    -0.78900
C3239       C  0.95534185  0.97457600  0.74916856     0.83700
C3240       C  0.56686272  0.95907722  0.74916550     0.83300
O3241       O  0.51578423  0.00006748  0.83504543    -0.77800
C3242       C  0.58692030  0.56733077  0.74750657     0.84100
O3243       O  0.97665691  0.97022375  0.77113563    -0.77900
C3244       C  0.51831046  0.52277498  0.64406811     0.84300
C3245       C  0.97315033  0.58728342  0.74823119     0.84600
O3246       O  0.96550315  0.56684611  0.72716451    -0.80300
C3247       C  0.61097592  0.86683240  0.95763963     0.30700
C3248       C  0.61237854  0.86677913  0.53695522     0.30700
C3249       C  0.60493768  0.89507300  0.97699698    -0.05500
C3250       C  0.58967378  0.84730115  0.97815077    -0.06300
C3251       C  0.63947672  0.85756829  0.97633513    -0.06200
C3252       C  0.60440336  0.89470723  0.51743970    -0.05500
C3253       C  0.59008334  0.84707751  0.51827635    -0.06300
C3254       C  0.64030378  0.85900699  0.51630716    -0.06200
C3255       C  0.58990581  0.91838575  0.52894709    -0.31600
N3256       N  0.58068619  0.93214695  0.99735861     0.14900
C3257       C  0.58863977  0.91771304  0.96578862    -0.31600
H3258       H  0.58181507  0.92252929  0.93686727     0.16900
C3259       C  0.56892410  0.82905975  0.53065104    -0.30600
N3260       N  0.55636539  0.81832277  0.99995217     0.13600
C3261       C  0.56942269  0.82774170  0.96778048    -0.30600
C3262       C  0.66493143  0.84547445  0.52756759    -0.30900
N3263       N  0.67877651  0.83529701  0.99601865     0.14100
H3264       H  0.67124266  0.84085021  0.55676879     0.16800
C3265       C  0.66283632  0.84196686  0.96474087    -0.30900
H3266       H  0.66724100  0.83483327  0.93593215     0.16800
H3267       H  0.56475346  0.82034058  0.93918899     0.16800
H3268       H  0.58415616  0.92384209  0.55801913     0.16800
H3269       H  0.56210058  0.82570237  0.55991322     0.16800
C3270       C  0.61384144  0.86984710  0.70788663     0.30700
C3271       C  0.61281371  0.86893853  0.78702685     0.30700
C3272       C  0.60902623  0.89816525  0.72794643    -0.05500
C3273       C  0.59007663  0.85183131  0.72643544    -0.06300
C3274       C  0.64072466  0.85863548  0.72786260    -0.06200
C3275       C  0.60866893  0.89756286  0.76832121    -0.05500
C3276       C  0.58985522  0.85103112  0.76656971    -0.06300
C3277       C  0.64026492  0.85811353  0.76786557    -0.06200
C3278       C  0.59289537  0.92017478  0.78033228    -0.31600
N3279       N  0.58445740  0.93479886  0.74920868     0.14900
C3280       C  0.59303954  0.92112850  0.71741811    -0.31600
H3281       H  0.58569024  0.92607038  0.68875995     0.16900
C3282       C  0.56987190  0.83122873  0.77714747    -0.30600
N3283       N  0.55725572  0.82100334  0.74503895     0.13600
C3284       C  0.56945859  0.83322401  0.71396056    -0.30600
C3285       C  0.66332378  0.84234850  0.77951542    -0.30900
N3286       N  0.67779221  0.83389269  0.74802941     0.14100
H3287       H  0.66826382  0.83592994  0.80854225     0.16800
C3288       C  0.66396326  0.84316722  0.71630707    -0.30900
H3289       H  0.66973882  0.83806309  0.68711186     0.16800
H3290       H  0.56402474  0.82835698  0.68455429     0.16800
H3291       H  0.58614892  0.92443463  0.80941686     0.16800
H3292       H  0.56559589  0.82378303  0.80587537     0.16800
C3293       C  0.68145150  0.61314432  0.53731310     0.30700
C3294       C  0.68008953  0.61332588  0.95800864     0.30700
C3295       C  0.68845228  0.64094234  0.51756114    -0.05500
C3296       C  0.70149008  0.59263009  0.51711552    -0.06300
C3297       C  0.65260261  0.60504942  0.51857869    -0.06200
C3298       C  0.68877602  0.64116914  0.97710783    -0.05500
C3299       C  0.70027036  0.59243239  0.97765909    -0.06300
C3300       C  0.65100838  0.60755683  0.97831386    -0.06200
C3301       C  0.69786132  0.66747810  0.96587707    -0.31600
N3302       N  0.70541631  0.68206446  0.99765146     0.14900
C3303       C  0.69887412  0.66621185  0.52969778    -0.31600
H3304       H  0.70437239  0.67173517  0.55888999     0.16900
C3305       C  0.71917856  0.57231658  0.96571556    -0.30600
N3306       N  0.72978707  0.55925986  0.99717580     0.13600
C3307       C  0.71990680  0.57172672  0.52790155    -0.30600
C3308       C  0.62469126  0.59668103  0.96771633    -0.30900
N3309       N  0.61144506  0.58647396  0.99935930     0.14100
H3310       H  0.61659886  0.59415696  0.93887153     0.16800
C3311       C  0.62844676  0.59081979  0.53054425    -0.30900
H3312       H  0.62399825  0.58346664  0.55928599     0.16800
H3313       H  0.72406074  0.56451905  0.55676903     0.16800
H3314       H  0.70044072  0.67511398  0.93689484     0.16800
H3315       H  0.72447365  0.56716743  0.93636974     0.16800
C3316       C  0.68187174  0.61285958  0.78748470     0.30700
C3317       C  0.68158547  0.61325163  0.70815057     0.30700
C3318       C  0.68487404  0.64162463  0.76806217    -0.05500
C3319       C  0.70510344  0.59564307  0.76752487    -0.06300
C3320       C  0.65406387  0.60202352  0.76793013    -0.06200
C3321       C  0.68518454  0.64167194  0.72791915    -0.05500
C3322       C  0.70511847  0.59569660  0.72754344    -0.06300
C3323       C  0.65452333  0.60121018  0.72777330    -0.06200
C3324       C  0.69578443  0.66721995  0.71645761    -0.31600
N3325       N  0.70115580  0.68273879  0.74815167     0.14900
C3326       C  0.69382605  0.66768094  0.77955428    -0.31600
H3327       H  0.69695335  0.67465874  0.80865764     0.16900
C3328       C  0.72629665  0.57743393  0.71631215    -0.30600
N3329       N  0.73948842  0.56742283  0.74813295     0.13600
C3330       C  0.72641690  0.57795919  0.77953651    -0.30600
C3331       C  0.62963193  0.58806226  0.71619794    -0.30900
N3332       N  0.61314849  0.58302267  0.74745172     0.14100
H3333       H  0.62397548  0.58219956  0.68719954     0.16800
C3334       C  0.62744005  0.59195050  0.77902181    -0.30900
H3335       H  0.61910442  0.59035038  0.80784661     0.16800
H3336       H  0.73163601  0.57260057  0.80888551     0.16800
H3337       H  0.70218483  0.67284528  0.68763337     0.16800
H3338       H  0.73115600  0.57083691  0.68741282     0.16800
O3339       O  0.74518471  0.76739254  0.91248788    -0.77800
C3340       C  0.72222855  0.70703117  0.99808955     0.83200
O3341       O  0.72395316  0.82465934  0.51865242    -0.79000
O3342       O  0.77041599  0.74859503  0.58719499    -0.80400
O3343       O  0.83270497  0.74347466  0.97483396    -0.80200
O3344       O  0.79253882  0.77453596  0.91077426    -0.78900
Zn3345     Zn  0.73396653  0.76551537  0.96708764     1.55700
O3346       O  0.81258192  0.71915278  0.52403518    -0.80300
Cd3347     Cd  0.80357692  0.77520973  0.96679181     1.59700
Cd3348     Cd  0.76270540  0.80531047  0.53022409     1.59600
O3349       O  0.82402412  0.81247924  0.97700499    -0.80300
O3350       O  0.76824769  0.77087264  0.99811105    -1.90800
Cd3351     Cd  0.77307833  0.73774688  0.53149086     1.59900
O3352       O  0.79696650  0.83284497  0.52306681    -0.80200
O3353       O  0.74161389  0.70862254  0.52227810    -0.78900
C3354       C  0.70382802  0.81802198  0.99650196     0.83700
C3355       C  0.76850954  0.77100015  0.89449061     0.83300
O3356       O  0.71600479  0.72716972  0.97569383    -0.77800
C3357       C  0.83267440  0.72375178  0.50020430     0.84100
O3358       O  0.70455096  0.79623451  0.97560853    -0.77900
C3359       C  0.81856222  0.83274071  0.50066699     0.84300
C3360       C  0.76575074  0.77144908  0.60409819     0.84600
O3361       O  0.76191900  0.79443139  0.58679744    -0.80300
O3362       O  0.71378415  0.72721320  0.72643598    -0.77800
C3363       C  0.70260421  0.81659243  0.74853666     0.83200
O3364       O  0.79028224  0.77424674  0.66137268    -0.79000
O3365       O  0.79522447  0.83251477  0.77110634    -0.80400
O3366       O  0.77135674  0.74764011  0.83672010    -0.80200
O3367       O  0.74045487  0.70738804  0.77184671    -0.78900
Zn3368     Zn  0.73244177  0.76493472  0.71779449     1.55700
O3369       O  0.76404591  0.79371117  0.83622742    -0.80300
Cd3370     Cd  0.77291968  0.73624617  0.78078245     1.59700
Cd3371     Cd  0.80211615  0.77503416  0.71705344     1.59600
O3372       O  0.81295809  0.71814024  0.77238038    -0.80300
O3373       O  0.76694553  0.76994091  0.74849734    -1.90800
Cd3374     Cd  0.76244998  0.80415474  0.77996961     1.59900
O3375       O  0.83184185  0.74379372  0.72547166    -0.80200
O3376       O  0.72334074  0.82300460  0.77061009    -0.78900
C3377       C  0.76618443  0.77128305  0.64504815     0.83700
C3378       C  0.71909380  0.70698437  0.74899684     0.83300
O3379       O  0.70333821  0.79517876  0.72709757    -0.77800
C3380       C  0.76781185  0.77077164  0.85355820     0.84100
O3381       O  0.74284316  0.76754376  0.66296991    -0.77900
C3382       C  0.83323952  0.72355238  0.74902885     0.84300
C3383       C  0.81675070  0.83295920  0.74873453     0.84600
O3384       O  0.82213416  0.81297830  0.72597366    -0.80300
C3385       C  0.70304097  0.62646585  0.89393302    -0.25700
C3386       C  0.68175704  0.61139301  0.91376900    -0.13700
C3387       C  0.66781256  0.59017858  0.89239248     0.36900
C3388       C  0.66818891  0.59126622  0.85199174    -0.25100
C3389       C  0.68416258  0.61144073  0.83179952    -0.14400
C3390       C  0.70546386  0.62569815  0.85374291     0.38000
N3391       N  0.73160115  0.63646737  0.83755750    -0.88600
H3392       H  0.71960762  0.63718772  0.90981223     0.19100
H3393       H  0.65788768  0.57463418  0.83641566     0.19100
N3394       N  0.65535898  0.56639204  0.91119881    -0.87600
H3395       H  0.73309352  0.65776653  0.84334953     0.36500
H3396       H  0.73298357  0.63344720  0.80808695     0.41600
H3397       H  0.67186655  0.55513308  0.92407650     0.41200
H3398       H  0.64569200  0.55300574  0.89137181     0.36100
C3399       C  0.65758932  0.62139845  0.60208694    -0.25700
C3400       C  0.68271494  0.61488355  0.58163074    -0.13700
C3401       C  0.70869842  0.61472237  0.60322498     0.36900
C3402       C  0.70761487  0.61371009  0.64351974    -0.25100
C3403       C  0.68163264  0.61501026  0.66384699    -0.14400
C3404       C  0.65706912  0.62276086  0.64249447     0.38000
N3405       N  0.63211684  0.63334986  0.66155142    -0.88600
H3406       H  0.63842292  0.62699982  0.58652517     0.19100
H3407       H  0.72767890  0.61378438  0.65900830     0.19100
N3408       N  0.73653366  0.61813907  0.58623198    -0.87600
H3409       H  0.61600857  0.63815482  0.64179610     0.36500
H3410       H  0.63790160  0.65206362  0.67479907     0.41600
H3411       H  0.73567937  0.62253977  0.55701687     0.41200
H3412       H  0.74817797  0.59986081  0.59046754     0.36100
C3413       C  0.63588115  0.87531564  0.89358615    -0.25700
C3414       C  0.61052857  0.86832980  0.91334751    -0.13700
C3415       C  0.58491964  0.86804354  0.89144565     0.36900
C3416       C  0.58618603  0.86792914  0.85108427    -0.25100
C3417       C  0.61238066  0.86983546  0.83129046    -0.14400
C3418       C  0.63683937  0.87720076  0.85324826     0.38000
N3419       N  0.66218339  0.88780843  0.83487511    -0.88600
H3420       H  0.65492943  0.88064037  0.90969200     0.19100
H3421       H  0.56625435  0.86762599  0.83525584     0.19100
N3422       N  0.55750731  0.86986348  0.90960092    -0.87600
H3423       H  0.67814553  0.89226542  0.85503069     0.36500
H3424       H  0.65684587  0.90670797  0.82181464     0.41600
H3425       H  0.54790957  0.88842366  0.90070815     0.41200
H3426       H  0.54469709  0.85354141  0.89946111     0.36100
C3427       C  0.62230903  0.89113473  0.60063915    -0.25700
C3428       C  0.61499889  0.86633613  0.58133103    -0.13700
C3429       C  0.61432637  0.84159225  0.60415654     0.36900
C3430       C  0.61347877  0.84363731  0.64439094    -0.25100
C3431       C  0.61587401  0.86928698  0.66356150    -0.14400
C3432       C  0.62400880  0.89262608  0.64099312     0.38000
N3433       N  0.63597174  0.91709366  0.65857755    -0.88600
H3434       H  0.62836596  0.90930128  0.58415952     0.19100
H3435       H  0.61219415  0.82458964  0.66098584     0.19100
N3436       N  0.61691206  0.81403933  0.58854078    -0.87600
H3437       H  0.64115083  0.93214679  0.63799940     0.36500
H3438       H  0.65518109  0.91130200  0.67175179     0.41600
H3439       H  0.62034142  0.81396473  0.55909176     0.41200
H3440       H  0.59814422  0.80299801  0.59463082     0.36100
C3441       C  0.80838535  0.52885980  0.73304360    -0.25700
C3442       C  0.80132301  0.50280659  0.74862845    -0.13700
C3443       C  0.77479239  0.99732919  0.76560872     0.36900
C3444       C  0.75405299  0.52024325  0.76422880    -0.25100
C3445       C  0.76103080  0.54626668  0.74864749    -0.14400
C3446       C  0.78864764  0.55079973  0.73308146     0.38000
N3447       N  0.79751326  0.57730556  0.71781964    -0.88600
H3448       H  0.82960325  0.53221566  0.72132661     0.19100
H3449       H  0.73278377  0.51680032  0.77573506     0.19100
N3450       N  0.76556832  0.97050333  0.77941621    -0.87600
H3451       H  0.81484258  0.58429764  0.73427785     0.36500
H3452       H  0.78155594  0.59226494  0.72089594     0.41600
H3453       H  0.78104662  0.95530132  0.77490952     0.41200
H3454       H  0.74798464  0.96433745  0.76283094     0.36100
C3455       C  0.79590239  0.51736467  0.97893576    -0.25700
C3456       C  0.78884336  0.49218372  0.99712092    -0.13700
C3457       C  0.76311153  0.98952769  0.51378441     0.36900
C3458       C  0.74551556  0.51349327  0.51251534    -0.25100
C3459       C  0.74998144  0.53686265  0.99706874    -0.14400
C3460       C  0.77670891  0.53982637  0.97884297     0.38000
N3461       N  0.78436483  0.56583005  0.96108164    -0.88600
H3462       H  0.81665689  0.51954215  0.96539745     0.19100
H3463       H  0.72456268  0.51076123  0.52532451     0.19100
N3464       N  0.75327600  0.96357913  0.52983208    -0.87600
H3465       H  0.80485100  0.56467898  0.94914242     0.36500
H3466       H  0.78535109  0.58091519  0.98264290     0.41600
H3467       H  0.76806149  0.94766160  0.52570138     0.41200
H3468       H  0.73499855  0.95753063  0.51455554     0.36100
C3469       C  0.89138084  0.91315408  0.85444691    -0.25700
C3470       C  0.86646037  0.91937843  0.83315498    -0.13700
C3471       C  0.84017346  0.92023704  0.85407737     0.36900
C3472       C  0.84064861  0.92035480  0.89437078    -0.25100
C3473       C  0.86623213  0.91869474  0.91555412    -0.14400
C3474       C  0.89126814  0.91184702  0.89488016     0.38000
N3475       N  0.91631980  0.90223339  0.91453618    -0.88600
H3476       H  0.91105678  0.90806607  0.83979499     0.19100
H3477       H  0.82031437  0.92042496  0.90912625     0.19100
N3478       N  0.81235804  0.91945563  0.83627186    -0.87600
H3479       H  0.93364429  0.91469883  0.90621421     0.36500
H3480       H  0.92050356  0.88195265  0.90529321     0.41600
H3481       H  0.81311648  0.91706582  0.80672301     0.41200
H3482       H  0.80195628  0.93820977  0.84221358     0.36100
C3483       C  0.83999372  0.92276450  0.60410928    -0.25700
C3484       C  0.86569003  0.92112997  0.58320927    -0.13700
C3485       C  0.89080980  0.91436389  0.60402757     0.36900
C3486       C  0.89068374  0.91534868  0.64440865    -0.25100
C3487       C  0.86561864  0.92086086  0.66552528    -0.14400
C3488       C  0.83938643  0.92189859  0.64444138     0.38000
N3489       N  0.81159345  0.92045561  0.66212804    -0.88600
H3490       H  0.81974793  0.92330380  0.58903210     0.19100
H3491       H  0.91028048  0.91033201  0.65936150     0.19100
N3492       N  0.91625045  0.90561511  0.58432247    -0.87600
H3493       H  0.80094842  0.93917850  0.65673936     0.36500
H3494       H  0.81250994  0.91760271  0.69164151     0.41600
H3495       H  0.91164078  0.88668233  0.57086231     0.41200
H3496       H  0.93289776  0.90173140  0.60366078     0.36100
C3497       C  0.98577483  0.78441948  0.75581966    -0.25700
C3498       C  0.99296800  0.75761928  0.74333506    -0.13700
C3499       C  0.52157799  0.75248244  0.72536927     0.36900
C3500       C  0.54197315  0.77396574  0.72642395    -0.25100
C3501       C  0.53581386  0.79947268  0.74403377    -0.14400
C3502       C  0.50854038  0.80361299  0.76042302     0.38000
N3503       N  0.50091892  0.82957494  0.77768584    -0.88600
H3504       H  0.96412351  0.78862798  0.76521689     0.19100
H3505       H  0.56296675  0.77063248  0.71410071     0.19100
N3506       N  0.52960495  0.72630210  0.70905489    -0.87600
H3507       H  0.00226109  0.84710467  0.74630030     0.36500
H3508       H  0.51438703  0.83315477  0.80111175     0.41600
H3509       H  0.51650830  0.72224992  0.68541173     0.41200
H3510       H  0.52631613  0.71070915  0.72957432     0.36100
C3511       C  0.51534170  0.75068126  0.51559670    -0.25700
C3512       C  0.48850548  0.75928579  0.00095293    -0.13700
C3513       C  0.98528453  0.78485036  0.98668393     0.36900
C3514       C  0.50652951  0.80560658  0.98623567    -0.25100
C3515       C  0.53349306  0.79838428  0.00091278    -0.14400
C3516       C  0.53803699  0.76972792  0.51615049     0.38000
N3517       N  0.56489832  0.76116222  0.53196332    -0.88600
H3518       H  0.51830075  0.73012285  0.52781858     0.19100
H3519       H  0.50310865  0.82636542  0.97493182     0.19100
N3520       N  0.95783685  0.79312540  0.97242945    -0.87600
H3521       H  0.56976840  0.77404939  0.55513602     0.36500
H3522       H  0.58069448  0.76379666  0.51102490     0.41600
H3523       H  0.94276087  0.78999939  0.99417262     0.41200
H3524       H  0.95239759  0.78035116  0.94930496     0.36100
C3525       C  0.95166521  0.68183781  0.89416032    -0.25700
C3526       C  0.92579458  0.67704658  0.91383068    -0.13700
C3527       C  0.90238875  0.66696327  0.89178566     0.36900
C3528       C  0.90341018  0.66831564  0.85148235    -0.25100
C3529       C  0.92800942  0.67722719  0.83153389    -0.14400
C3530       C  0.95347723  0.68064741  0.85381568     0.38000
N3531       N  0.98173136  0.68041420  0.83750632    -0.88600
H3532       H  0.97116289  0.68509586  0.91041409     0.19100
H3533       H  0.88508405  0.66079121  0.83554852     0.19100
N3534       N  0.87824968  0.65381632  0.90998757    -0.87600
H3535       H  0.99132332  0.69982073  0.84215200     0.36500
H3536       H  0.98163686  0.67621331  0.80824608     0.41600
H3537       H  0.88564360  0.63570298  0.92335606     0.41200
H3538       H  0.86298338  0.64752716  0.88978222     0.36100
C3539       C  0.95072589  0.67944864  0.64343885    -0.25700
C3540       C  0.92504217  0.67547799  0.66379988    -0.13700
C3541       C  0.90102317  0.66598218  0.64254572     0.36900
C3542       C  0.90147206  0.66718016  0.60219120    -0.25100
C3543       C  0.92593402  0.67572786  0.58158415    -0.14400
C3544       C  0.95180431  0.67886154  0.60310657     0.38000
N3545       N  0.97977301  0.67964778  0.58589819    -0.88600
H3546       H  0.97058679  0.68214212  0.65907462     0.19100
H3547       H  0.88277004  0.65994976  0.58681748     0.19100
N3548       N  0.87677649  0.65371476  0.66161048    -0.87600
H3549       H  0.98906247  0.69908053  0.59149103     0.36500
H3550       H  0.97928703  0.67664714  0.55639566     0.41600
H3551       H  0.88377355  0.63547189  0.67502550     0.41200
H3552       H  0.86099145  0.64780308  0.64191388     0.36100
loop_ 
_geom_bond_atom_site_label_1 
_geom_bond_atom_site_label_2 
_geom_bond_distance 
_geom_bond_site_symmetry_2 
_ccdc_geom_bond_type 
C1            C3   1.530       .  S
C1            C5   1.544       .  S
C1            C4   1.540       .  S
C1          C418   1.544       .  S
C2            C6   1.528       .  S
C2            C8   1.549       .  S
C2            C7   1.545       .  S
C2          C435   1.552       .  S
C3           C11   1.377       .  A
C3          C450   1.387       .  A
C4           C15   1.378       .  A
C4          C451   1.399       .  A
C5           C19   1.383       .  A
C5          C452   1.417       .  A
C6            C9   1.374       .  A
C6          C447   1.389   1_554  A
C7           C13   1.376       .  A
C7          C448   1.401   1_554  A
C8           C16   1.386       .  A
C8          C449   1.416   1_554  A
C9           N10   1.355   1_554  A
C9           H22   1.083       .  S
N10         C455   1.357       .  A
N10         C111   1.427       .  S
C11         N454   1.357       .  A
C11          H12   1.083       .  S
C13         N458   1.357   1_554  A
C13          H23   1.081       .  S
N14          C15   1.357       .  A
N14         C457   1.356       .  A
N14        C2180   1.433       .  S
C15          H21   1.082       .  S
C16          N17   1.349   1_554  A
C16          H18   1.082       .  S
N17         C463   1.348       .  A
N17         C249   1.429       .  S
C19         N461   1.347       .  A
C19          H20   1.083       .  S
C24          C26   1.534       .  S
C24          C28   1.545       .  S
C24          C27   1.547       .  S
C24         C432   1.548       .  S
C25          C29   1.532       .  S
C25          C31   1.554       .  S
C25          C30   1.546       .  S
C25         C421   1.551       .  S
C26          C34   1.380       .  A
C26          C29   1.389       .  A
C27          C38   1.382       .  A
C27          C30   1.400       .  A
C28          C42   1.385       .  A
C28          C31   1.411       .  A
C29          C32   1.378       .  A
C30          C36   1.380       .  A
C31          C39   1.388       .  A
C32          N33   1.357       .  A
C32          H45   1.083       .  S
N33          C34   1.358       .  A
N33         C137   1.433       .  S
C34          H35   1.082       .  S
C36          N37   1.358       .  A
C36          H46   1.081       .  S
N37          C38   1.357       .  A
N37         C390   1.439       .  S
C38          H44   1.082       .  S
C39          N40   1.351       .  A
C39          H41   1.082       .  S
N40          C42   1.351       .  A
N40         C274   1.433       .  S
C42          H43   1.083       .  S
C47          C49   1.540       .  S
C47          C51   1.536       .  S
C47          C50   1.548       .  S
C47         C365   1.545       .  S
C48          C52   1.541       .  S
C48          C54   1.535       .  S
C48          C53   1.540       .  S
C48         C376   1.549       .  S
C49          C57   1.381       .  A
C49         C496   1.400       .  A
C50          C61   1.380       .  A
C50         C497   1.400       .  A
C51          C65   1.378       .  A
C51         C498   1.405       .  A
C52          C55   1.380       .  A
C52         C493   1.396   1_554  A
C53          C59   1.378       .  A
C53         C494   1.403   1_554  A
C54          C62   1.382       .  A
C54         C495   1.412   1_554  A
C55         N500   1.356   1_554  A
C55          H68   1.082       .  S
N56          C57   1.354       .  A
N56         C499   1.353       .  A
N56         C109   1.431       .  S
C57          H58   1.082       .  S
C59         N504   1.353   1_554  A
C59          H69   1.082       .  S
N60          C61   1.354       .  A
N60         C503   1.356       .  A
N60        C1236   1.433       .  S
C61          H67   1.082       .  S
C62         N507   1.350   1_554  A
C62          H64   1.083       .  S
N63          C65   1.353       .  A
N63         C506   1.352       .  A
N63         C695   1.429       .  S
C65          H66   1.083       .  S
C70          C72   1.553       .  S
C70          C74   1.532       .  S
C70          C73   1.541       .  S
C70         C379   1.552       .  S
C71          C75   1.555       .  S
C71          C77   1.527       .  S
C71          C76   1.541       .  S
C71         C362   1.550       .  S
C72          C80   1.389       .  A
C72          C75   1.424       .  A
C73          C84   1.378       .  A
C73          C76   1.398       .  A
C74          C88   1.379       .  A
C74          C77   1.385       .  A
C75          C78   1.389       .  A
C76          C82   1.376       .  A
C77          C85   1.376       .  A
C78          N79   1.351       .  A
C78          H91   1.082       .  S
N79          C80   1.350       .  A
N79         C131   1.437       .  S
C80          H81   1.082       .  S
C82          N83   1.357       .  A
C82          H92   1.082       .  S
N83          C84   1.356       .  A
N83        C1222   1.435       .  S
C84          H90   1.081       .  S
C85          N86   1.354       .  A
C85          H87   1.083       .  S
N86          C88   1.356       .  A
N86         C275   1.428       .  S
C88          H89   1.083       .  S
O93         C109   1.275       .  A
O93       Zn1875   2.028       .  S
C94         O107   1.269       .  A
C94         O998   1.271       .  A
C94         C117   1.441       .  S
O95         C552   1.276   1_554  A
O95        Cd990   2.079       .  S
O96         C114   1.274       .  A
O96        Cd105   2.072       .  S
O97         C111   1.273   1_554  A
O97        Cd101   2.067       .  S
O98         C553   1.272   1_554  A
O98        Cd989   2.063       .  S
Zn99        O110   1.981       .  S
Zn99        O112   2.040       .  S
Zn99       O1869   2.026   1_455  S
Zn99        O992   1.940       .  S
O100       C2331   1.272       .  A
O100       Cd105   2.063   1_655  S
Cd101       O103   2.024       .  S
Cd101       O986   2.065   1_545  S
Cd101      O2324   1.996   1_554  S
Cd102       O106   2.037       .  S
Cd102       O115   2.092       .  S
Cd102       O983   2.083   1_545  S
Cd102       O548   1.994   1_554  S
O103       C1889   1.269       .  A
O104       Zn987   1.942   1_545  S
O104       Cd105   1.992       .  S
O104      Cd2321   1.996   1_455  S
O104       Cd546   1.991       .  S
Cd105       O107   2.016       .  S
O106        C113   1.272       .  A
C108        N148   1.436       .  S
C108        O112   1.276       .  A
C108        O539   1.275       .  A
C109        O542   1.273       .  A
O110        C982   1.271       .  A
C111       O2320   1.272       .  A
C113       O1879   1.269   1_455  A
C113        C136   1.443       .  S
C114        N201   1.435       .  S
C114        O559   1.276       .  A
O115        C558   1.277   1_554  A
O116        C132   1.274       .  A
O116       Zn122   2.025       .  S
C117        O130   1.271       .  A
C117       O1021   1.270       .  A
O118        C131   1.276       .  A
O118      Cd1013   2.091       .  S
O119       C1913   1.276       .  A
O119       Cd128   2.078   1_655  S
O120        C134   1.273       .  A
O120       Cd124   2.070       .  S
O121        C132   1.272       .  A
O121      Cd1012   2.053       .  S
Zn122       O133   1.971       .  S
Zn122      O1911   2.025   1_455  S
Zn122      O1015   1.942       .  S
O123        C134   1.277       .  A
O123       Cd128   2.096       .  S
Cd124       O126   2.017       .  S
Cd124      O1009   2.057   1_545  S
Cd124       O127   1.988       .  S
Cd125       O129   2.038       .  S
Cd125       O138   2.084       .  S
Cd125      O1006   2.094   1_545  S
Cd125      O1903   2.001       .  S
O126        C136   1.269       .  A
O127      Zn1010   1.944   1_545  S
O127       Cd128   1.995       .  S
O127      Cd1901   2.001   1_455  S
Cd128       O130   2.027       .  S
O129       C1912   1.272       .  A
C131        O135   1.274       .  A
C132        N171   1.428       .  S
O133       C1005   1.270       .  A
C134        N224   1.437       .  S
O135      Zn1898   2.029       .  S
C136       O1905   1.273   1_455  A
C137        O138   1.276       .  A
C137       O1895   1.276       .  A
C139        C141   1.544       .  S
C139        C143   1.547       .  S
C139        C142   1.541       .  S
C139        C306   1.548       .  S
C140        C144   1.550       .  S
C140        C146   1.535       .  S
C140        C145   1.547       .  S
C140        C320   1.551       .  S
C141        C149   1.385       .  A
C141        C588   1.409       .  A
C142        C153   1.378       .  A
C142        C589   1.399       .  A
C143        C157   1.387       .  A
C143        C590   1.394       .  A
C144        C147   1.387       .  A
C144        C585   1.409   1_554  A
C145        C151   1.380       .  A
C145        C586   1.399   1_554  A
C146        C154   1.379       .  A
C146        C587   1.393   1_554  A
C147        N592   1.354   1_554  A
C147        H160   1.082       .  S
N148        C149   1.355       .  A
N148        C591   1.354       .  A
C149        H150   1.082       .  S
C151        N596   1.357       .  A
C151        H161   1.081       .  S
N152        C153   1.354       .  A
N152        C595   1.357       .  A
N152        C407   1.435       .  S
C153        H159   1.081       .  S
C154        N599   1.355   1_554  A
C154        H156   1.083       .  S
N155        C157   1.359       .  A
N155        C598   1.355       .  A
N155        C246   1.435       .  S
C157        H158   1.082       .  S
C162        C164   1.545       .  S
C162        C166   1.531       .  S
C162        C165   1.547       .  S
C162        C323   1.548       .  S
C163        C167   1.533       .  S
C163        C169   1.538       .  S
C163        C168   1.548       .  S
C163        C309   1.546       .  S
C164        C172   1.382       .  A
C164        C167   1.408       .  A
C165        C176   1.381       .  A
C165        C168   1.402       .  A
C166        C180   1.378       .  A
C166        C169   1.395       .  A
C167        C170   1.380       .  A
C168        C174   1.380       .  A
C169        C177   1.378       .  A
C170        N171   1.350       .  A
C170        H183   1.083       .  S
N171        C172   1.351       .  A
C172        H173   1.082       .  S
C174        N175   1.358       .  A
C174        H184   1.082       .  S
N175        C176   1.358       .  A
N175        C393   1.440       .  S
C176        H182   1.081       .  S
C177        N178   1.353       .  A
C177        H179   1.082       .  S
N178        C180   1.354       .  A
N178        C255   1.427       .  S
C180        H181   1.082       .  S
C185        C187   1.536       .  S
C185        C189   1.546       .  S
C185        C188   1.533       .  S
C185        C292   1.547       .  S
C186        C190   1.547       .  S
C186        C192   1.554       .  S
C186        C191   1.536       .  S
C186        C278   1.546       .  S
C187        C195   1.374       .  A
C187        C634   1.396   1_554  A
C188        C199   1.377       .  A
C188        C635   1.393   1_554  A
C189        C203   1.384       .  A
C189        C636   1.406   1_554  A
C190        C193   1.386       .  A
C190        C631   1.397       .  A
C191        C197   1.377       .  A
C191        C632   1.392       .  A
C192        C200   1.383       .  A
C192        C633   1.404       .  A
C193        N194   1.357       .  A
C193        H206   1.081       .  S
N194        C639   1.356       .  A
N194        C232   1.432       .  S
C195        N638   1.355   1_554  A
C195        H196   1.083       .  S
C197        N198   1.356       .  A
C197        H207   1.083       .  S
N198        C643   1.356       .  A
N198        C351   1.433       .  S
C199        N642   1.356   1_554  A
C199        H205   1.082       .  S
C200        N201   1.356       .  A
C200        H202   1.081       .  S
N201        C647   1.356       .  A
C203        N645   1.355       .  A
C203        H204   1.082       .  S
C208        C210   1.545       .  S
C208        C212   1.555       .  S
C208        C211   1.535       .  S
C208        C281   1.549       .  S
C209        C213   1.538       .  S
C209        C215   1.547       .  S
C209        C214   1.543       .  S
C209        C295   1.545       .  S
C210        C218   1.379       .  A
C210        C213   1.399       .  A
C211        C222   1.375       .  A
C211        C214   1.394       .  A
C212        C226   1.388       .  A
C212        C215   1.401       .  A
C213        C216   1.380       .  A
C214        C220   1.382       .  A
C215        C223   1.382       .  A
C216        N217   1.356       .  A
C216        H229   1.083       .  S
N217        C218   1.356       .  A
N217        C270   1.433       .  S
C218        H219   1.079       .  S
C220        N221   1.357       .  A
C220        H230   1.082       .  S
N221        C222   1.355       .  A
N221        C337   1.435       .  S
C222        H228   1.083       .  S
C223        N224   1.356       .  A
C223        H225   1.082       .  S
N224        C226   1.356       .  A
C226        H227   1.081       .  S
O231        C247   1.269       .  A
O231       Zn237   1.978       .  S
C232        O248   1.277       .  A
C232        O689   1.272       .  A
O233        C690   1.276   1_554  A
O233       Cd240   2.079       .  S
O234        C252   1.267       .  A
O234       Cd243   2.018       .  S
O235        C693   1.273       .  A
O235       Cd239   2.066       .  S
O236        C247   1.268       .  A
O236       Cd239   2.019       .  S
Zn237       O248   2.048       .  S
Zn237       O250   2.040       .  S
Zn237       O242   1.945       .  S
O238        C249   1.272   1_554  A
O238       Cd243   2.067       .  S
Cd239       O241   2.054       .  S
Cd239       O242   1.990       .  S
Cd240       O244   2.085       .  S
Cd240       O253   2.043       .  S
Cd240       O686   1.994   1_554  S
O241        C695   1.271       .  A
O242       Cd684   1.992       .  S
O242       Cd687   1.983       .  S
Cd243       O245   2.052       .  S
Cd243       O686   1.987   1_554  S
O244        C251   1.277   1_554  A
O245        C676   1.272   1_554  A
C246        O250   1.276       .  A
C246        O677   1.275       .  A
C247        C272   1.428       .  S
C249        O679   1.272       .  A
C251        N507   1.430       .  S
C251        O685   1.272       .  A
C252        O253   1.270       .  A
C252        C269   1.430       .  S
O254        C270   1.275       .  A
O254       Zn260   2.033       .  S
C255        O271   1.273       .  A
C255        O268   1.272       .  A
O256        C269   1.267       .  A
O256       Cd263   2.016       .  S
O257        C275   1.274       .  A
O257       Cd266   2.069       .  S
O258        C272   1.268       .  A
O258       Cd262   2.028       .  S
O259        C270   1.275       .  A
O259       Cd262   2.070       .  S
Zn260       O271   2.021       .  S
Zn260       O273   1.983       .  S
Zn260       O265   1.947       .  S
O261        C272   1.268       .  A
O261       Cd266   2.027       .  S
Cd262       O264   2.083       .  S
Cd262       O265   1.987       .  S
Cd263       O267   2.066       .  S
Cd263       O276   2.061       .  S
Cd263       O265   1.990       .  S
O264        C274   1.276       .  A
O265       Cd266   1.989       .  S
Cd266       O268   2.060       .  S
O267        C274   1.273       .  A
C269        O273   1.270       .  A
C275        O276   1.272       .  A
C277        C278   1.408       .  A
C277        C282   1.406       .  A
C277        H284   1.080       .  S
C278        C279   1.419       .  A
C279        C280   1.409       .  A
C279        N286   1.437       .  S
C280        C281   1.408       .  A
C280        H285   1.078       .  S
C281        C282   1.427       .  A
C282        N283   1.439       .  S
N283        H287   1.045       .  S
N283        H288   1.040       .  S
N286        H289   1.044       .  S
N286        H290   1.046       .  S
C291        C292   1.411       .  A
C291        C296   1.410       .  A
C291        H298   1.081       .  S
C292        C293   1.427       .  A
C293        C294   1.406       .  A
C293        N300   1.438       .  S
C294        C295   1.407       .  A
C294        H299   1.081       .  S
C295        C296   1.417       .  A
C296        N297   1.438       .  S
N297        H301   1.045       .  S
N297        H302   1.045       .  S
N300        H303   1.041       .  S
N300        H304   1.044       .  S
C305        C306   1.409       .  A
C305        C310   1.411       .  A
C305        H312   1.082       .  S
C306        C307   1.418       .  A
C307        C308   1.410       .  A
C307        N314   1.432       .  S
C308        C309   1.408       .  A
C308        H313   1.082       .  S
C309        C310   1.420       .  A
C310        N311   1.438       .  S
N311        H315   1.046       .  S
N311        H316   1.045       .  S
N314        H317   1.046       .  S
N314        H318   1.046       .  S
C319        C320   1.409       .  A
C319        C324   1.412       .  A
C319        H326   1.080       .  S
C320        C321   1.429       .  A
C321        C322   1.407       .  A
C321        N328   1.437       .  S
C322        C323   1.405       .  A
C322        H327   1.083       .  S
C323        C324   1.419       .  A
C324        N325   1.437       .  S
N325        H329   1.045       .  S
N325        H330   1.046       .  S
N328        H331   1.040       .  S
N328        H332   1.042       .  S
C333        C334   1.402       .  A
C333        C338   1.403       .  A
C333        H340   1.084       .  S
C334       C1223   1.417   1_545  A
C334        N971   1.434   1_545  S
C335       C1222   1.417       .  A
C335       C1224   1.399       .  A
C335        N342   1.439       .  S
C336        C337   1.400       .  A
C336       C1223   1.399   1_545  A
C336        H341   1.084       .  S
C337        C338   1.416       .  A
C338        N339   1.438       .  S
N339        H343   1.046       .  S
N339        H344   1.042       .  S
N342        H345   1.041       .  S
N342        H346   1.046       .  S
C347        C348   1.403   1_545  A
C347        C352   1.405       .  A
C347        H354   1.083       .  S
C348       C1681   1.416       .  A
C348        N948   1.433       .  S
C349       C1680   1.417   1_554  A
C349       C1238   1.399       .  A
C349        N356   1.439       .  S
C350       C1237   1.400   1_545  A
C350        C795   1.400   1_554  A
C350        H355   1.084       .  S
C351        C352   1.409       .  A
C351        C794   1.399       .  A
C352        N353   1.437       .  S
N353        H357   1.046       .  S
N353        H358   1.046       .  S
N356        H359   1.042       .  S
N356        H360   1.046       .  S
C361        C362   1.412       .  A
C361        C366   1.409       .  A
C361        H368   1.081       .  S
C362        C363   1.430       .  A
C363        C364   1.406       .  A
C363        N370   1.439       .  S
C364        C365   1.406       .  A
C364        H369   1.081       .  S
C365        C366   1.413       .  A
C366        N367   1.432       .  S
N367        H371   1.045       .  S
N367        H372   1.046       .  S
N370        H373   1.038       .  S
N370        H374   1.046       .  S
C375        C376   1.408       .  A
C375        C380   1.408       .  A
C375        H382   1.081       .  S
C376        C377   1.416       .  A
C377        C378   1.411       .  A
C377        N384   1.438       .  S
C378        C379   1.411       .  A
C378        H383   1.080       .  S
C379        C380   1.429       .  A
C380        N381   1.439       .  S
N381        H385   1.046       .  S
N381        H386   1.039       .  S
N384        H387   1.045       .  S
N384        H388   1.045       .  S
C389        C390   1.402       .  A
C389       C2170   1.403       .  A
C389        H396   1.083       .  S
C390       C2167   1.414       .  A
C391        C392   1.400       .  A
C391       C2166   1.415   1_455  A
C391        N398   1.431       .  S
C392        C393   1.402       .  A
C392        H397   1.084       .  S
C393        C394   1.414       .  A
C394       C2165   1.403   1_455  A
C394        N395   1.431       .  S
N395        H400   1.046       .  S
N395       H2175   1.044       .  S
N398        H401   1.045       .  S
N398        H402   1.042       .  S
H399       N2171   1.044       .  S
C403        C408   1.397       .  A
C403        C848   1.401   1_455  A
C403        H410   1.084       .  S
C404        C847   1.401   1_655  A
C404       C2181   1.411       .  A
C404       N1790   1.434       .  S
C405       C2180   1.411       .  A
C405       C2182   1.401       .  A
C405        N412   1.431       .  S
C406        C407   1.404       .  A
C406       C2181   1.401   1_455  A
C406        H411   1.083       .  S
C407        C852   1.411       .  A
C408        C851   1.412       .  A
C408        N409   1.429       .  S
N409        H413   1.042       .  S
N409        H414   1.045       .  S
N412        H415   1.046       .  S
N412        H416   1.044       .  S
C417        C418   1.405       .  A
C417        C422   1.408       .  A
C417        H424   1.083       .  S
C418        C419   1.419       .  A
C419        C420   1.407       .  A
C419        N426   1.438       .  S
C420        C421   1.410       .  A
C420        H425   1.080       .  S
C421        C422   1.428       .  A
C422        N423   1.436       .  S
N423        H427   1.044       .  S
N423        H428   1.040       .  S
N426        H429   1.045       .  S
N426        H430   1.046       .  S
C431        C432   1.408       .  A
C431        C436   1.410       .  A
C431        H438   1.083       .  S
C432        C433   1.418       .  A
C433        C434   1.409       .  A
C433        N440   1.437       .  S
C434        C435   1.410       .  A
C434        H439   1.080       .  S
C435        C436   1.428       .  A
C436        N437   1.438       .  S
N437        H441   1.046       .  S
N437        H442   1.039       .  S
N440        H443   1.045       .  S
N440        H444   1.046       .  S
C445        C447   1.529       .  S
C445        C449   1.544       .  S
C445        C448   1.544       .  S
C445        C862   1.549       .  S
C446        C450   1.528       .  S
C446        C452   1.550       .  S
C446        C451   1.545       .  S
C446        C879   1.547       .  S
C447        C455   1.377       .  A
C448        C459   1.380       .  A
C449        C463   1.382       .  A
C450        C453   1.376       .  A
C451        C457   1.376       .  A
C452        C460   1.386       .  A
C453        N454   1.355       .  A
C453        H466   1.083       .  S
N454        C555   1.429       .  S
C455        H456   1.083       .  S
C457        H467   1.081       .  S
N458        C459   1.359       .  A
N458       C2624   1.437       .  S
C459        H465   1.082       .  S
C460        N461   1.349       .  A
C460        H462   1.082       .  S
N461        C693   1.428       .  S
C463        H464   1.083       .  S
C468        C470   1.533       .  S
C468        C472   1.542       .  S
C468        C471   1.547       .  S
C468        C876   1.544       .  S
C469        C473   1.534       .  S
C469        C475   1.556       .  S
C469        C474   1.547       .  S
C469        C865   1.553       .  S
C470        C478   1.380       .  A
C470        C473   1.390       .  A
C471        C482   1.383       .  A
C471        C474   1.400       .  A
C472        C486   1.383       .  A
C472        C475   1.410       .  A
C473        C476   1.378       .  A
C474        C480   1.380       .  A
C475        C483   1.388       .  A
C476        N477   1.358       .  A
C476        H489   1.082       .  S
N477        C478   1.358       .  A
N477        C581   1.433       .  S
C478        H479   1.083       .  S
C480        N481   1.358       .  A
C480        H490   1.081       .  S
N481        C482   1.357       .  A
N481        C834   1.439       .  S
C482        H488   1.082       .  S
C483        N484   1.354       .  A
C483        H485   1.082       .  S
N484        C486   1.351       .  A
N484        C718   1.433       .  S
C486        H487   1.083       .  S
C491        C493   1.539       .  S
C491        C495   1.539       .  S
C491        C494   1.549       .  S
C491        C809   1.549       .  S
C492        C496   1.541       .  S
C492        C498   1.533       .  S
C492        C497   1.539       .  S
C492        C820   1.543       .  S
C493        C501   1.380       .  A
C494        C505   1.383       .  A
C495        C509   1.381       .  A
C496        C499   1.381       .  A
C497        C503   1.378       .  A
C498        C506   1.381       .  A
C499        H512   1.083       .  S
N500        C501   1.355       .  A
N500        C553   1.431       .  S
C501        H502   1.082       .  S
C503        H513   1.082       .  S
N504        C505   1.353       .  A
N504       C1680   1.433       .  S
C505        H511   1.082       .  S
C506        H508   1.083       .  S
N507        C509   1.352       .  A
C509        H510   1.083       .  S
C514        C516   1.550       .  S
C514        C518   1.529       .  S
C514        C517   1.537       .  S
C514        C823   1.547       .  S
C515        C519   1.555       .  S
C515        C521   1.529       .  S
C515        C520   1.542       .  S
C515        C806   1.551       .  S
C516        C524   1.388       .  A
C516        C519   1.425       .  A
C517        C528   1.376       .  A
C517        C520   1.397       .  A
C518        C532   1.378       .  A
C518        C521   1.385       .  A
C519        C522   1.388       .  A
C520        C526   1.376       .  A
C521        C529   1.377       .  A
C522        N523   1.350       .  A
C522        H535   1.082       .  S
N523        C524   1.348       .  A
N523        C575   1.434       .  S
C524        H525   1.082       .  S
C526        N527   1.357       .  A
C526        H536   1.081       .  S
N527        C528   1.355       .  A
N527       C1666   1.432       .  S
C528        H534   1.082       .  S
C529        N530   1.355       .  A
C529        H531   1.082       .  S
N530        C532   1.356       .  A
N530        C719   1.428       .  S
C532        H533   1.083       .  S
O537        C553   1.276       .  A
O537      Zn2319   2.034       .  S
C538       O1442   1.272       .  A
C538        O551   1.268       .  A
C538        C561   1.441       .  S
O539      Cd1434   2.080       .  S
O540        C558   1.273       .  A
O540       Cd549   2.069       .  S
O541        C555   1.274       .  A
O541       Cd545   2.072       .  S
O542      Cd1433   2.067       .  S
Zn543      O2313   2.042   1_455  S
Zn543       O554   1.986       .  S
Zn543       O556   2.047       .  S
Zn543      O1436   1.946       .  S
O544       C1887   1.272       .  A
O544       Cd549   2.062   1_655  S
Cd545      O1430   2.064   1_545  S
Cd545       O547   2.022       .  S
Cd545      O1880   1.996       .  S
Cd546      O1427   2.081   1_545  S
Cd546       O550   2.025       .  S
Cd546       O559   2.086       .  S
O547       C2333   1.269       .  A
O548      Zn1431   1.947   1_545  S
O548      Cd1877   1.995   1_456  S
O548       Cd549   1.991       .  S
Cd549       O551   2.013       .  S
O550        C557   1.271       .  A
C552        N592   1.437       .  S
C552        O556   1.277       .  A
O554       C1426   1.272       .  A
C555       O1876   1.272       .  A
C557       O2323   1.269   1_455  A
C557        C580   1.439       .  S
C558        N645   1.436   1_556  S
O560        C576   1.274       .  A
O560       Zn566   2.028       .  S
C561       O1465   1.269       .  A
C561        O574   1.272       .  A
O562        C575   1.276       .  A
O562      Cd1457   2.086       .  S
O563       C2357   1.276       .  A
O563       Cd572   2.079   1_655  S
O564        C578   1.272       .  A
O564       Cd568   2.064       .  S
O565        C576   1.271       .  A
O565      Cd1456   2.054       .  S
Zn566       O577   1.968       .  S
Zn566      O2355   2.022   1_455  S
Zn566      O1459   1.944       .  S
O567        C578   1.276       .  A
O567       Cd572   2.095       .  S
Cd568      O1453   2.055   1_545  S
Cd568       O570   2.014       .  S
Cd568       O571   1.986       .  S
Cd569      O1450   2.083   1_545  S
Cd569       O573   2.034       .  S
Cd569       O582   2.087       .  S
Cd569      O2347   2.000       .  S
O570        C580   1.269       .  A
O571      Zn1454   1.943   1_545  S
O571      Cd2345   2.001   1_455  S
O571       Cd572   1.991       .  S
Cd572       O574   2.028       .  S
O573       C2356   1.271       .  A
C575        O579   1.273       .  A
C576        N615   1.429       .  S
O577       C1449   1.269       .  A
C578        N668   1.435       .  S
O579      Zn2342   2.019       .  S
C580       O2349   1.271   1_455  A
C581       O2339   1.276       .  A
C581        O582   1.276       .  A
C583        C585   1.544       .  S
C583        C587   1.548       .  S
C583        C586   1.543       .  S
C583        C750   1.548       .  S
C584        C588   1.549       .  S
C584        C590   1.535       .  S
C584        C589   1.547       .  S
C584        C764   1.552       .  S
C585        C593   1.386       .  A
C586        C597   1.380       .  A
C587        C601   1.387       .  A
C588        C591   1.386       .  A
C589        C595   1.380       .  A
C590        C598   1.378       .  A
C591        H604   1.082       .  S
N592        C593   1.354       .  A
C593        H594   1.082       .  S
C595        H605   1.081       .  S
N596        C597   1.356   1_554  A
N596        C851   1.438       .  S
C597        H603   1.081       .  S
C598        H600   1.083       .  S
N599        C601   1.359       .  A
N599        C690   1.436       .  S
C601        H602   1.082       .  S
C606        C608   1.545       .  S
C606        C610   1.533       .  S
C606        C609   1.546       .  S
C606        C767   1.548       .  S
C607        C611   1.535       .  S
C607        C613   1.539       .  S
C607        C612   1.547       .  S
C607        C753   1.547       .  S
C608        C616   1.382       .  A
C608        C611   1.410       .  A
C609        C620   1.380       .  A
C609        C612   1.401       .  A
C610        C624   1.380       .  A
C610        C613   1.394       .  A
C611        C614   1.383       .  A
C612        C618   1.380       .  A
C613        C621   1.379       .  A
C614        N615   1.351       .  A
C614        H627   1.083       .  S
N615        C616   1.350       .  A
C616        H617   1.082       .  S
C618        N619   1.358       .  A
C618        H628   1.082       .  S
N619        C620   1.357       .  A
N619        C837   1.438       .  S
C620        H626   1.081       .  S
C621        N622   1.353       .  A
C621        H623   1.082       .  S
N622        C624   1.356       .  A
N622        C699   1.429       .  S
C624        H625   1.082       .  S
C629        C631   1.537       .  S
C629        C633   1.547       .  S
C629        C632   1.535       .  S
C629        C736   1.549       .  S
C630        C634   1.548       .  S
C630        C636   1.556       .  S
C630        C635   1.539       .  S
C630        C722   1.550       .  S
C631        C639   1.373       .  A
C632        C643   1.377       .  A
C633        C647   1.382       .  A
C634        C637   1.387       .  A
C635        C641   1.377       .  A
C636        C644   1.384       .  A
C637        N638   1.357       .  A
C637        H650   1.081       .  S
N638        C676   1.432       .  S
C639        H640   1.083       .  S
C641        N642   1.357       .  A
C641        H651   1.082       .  S
N642        C795   1.434       .  S
C643        H649   1.081       .  S
C644        N645   1.356   1_556  A
C644        H646   1.081       .  S
C647        H648   1.082       .  S
C652        C654   1.544       .  S
C652        C656   1.554       .  S
C652        C655   1.536       .  S
C652        C725   1.553       .  S
C653        C657   1.537       .  S
C653        C659   1.546       .  S
C653        C658   1.544       .  S
C653        C739   1.548       .  S
C654        C662   1.378       .  A
C654        C657   1.400       .  A
C655        C666   1.376       .  A
C655        C658   1.396       .  A
C656        C670   1.387       .  A
C656        C659   1.401       .  A
C657        C660   1.379       .  A
C658        C664   1.383       .  A
C659        C667   1.380       .  A
C660        N661   1.356       .  A
C660        H673   1.083       .  S
N661        C662   1.355       .  A
N661        C714   1.431       .  S
C662        H663   1.079       .  S
C664        N665   1.357       .  A
C664        H674   1.081       .  S
N665        C666   1.354       .  A
N665        C781   1.434       .  S
C666        H672   1.083       .  S
C667        N668   1.356       .  A
C667        H669   1.082       .  S
N668        C670   1.356       .  A
C670        H671   1.081       .  S
O675        C691   1.269       .  A
O675       Zn681   1.982       .  S
C676        O692   1.276       .  A
O677       Cd684   2.075       .  S
O678        C696   1.266       .  A
O678       Cd687   2.012       .  S
O679       Cd683   2.064       .  S
O680        C691   1.268       .  A
O680       Cd683   2.024       .  S
Zn681       O692   2.043       .  S
Zn681       O694   2.039       .  S
Zn681       O686   1.946       .  S
O682        C693   1.272       .  A
O682       Cd687   2.062       .  S
Cd683       O685   2.058       .  S
Cd683       O686   1.991       .  S
Cd684       O688   2.081       .  S
Cd684       O697   2.035       .  S
Cd687       O689   2.048       .  S
O688        C695   1.276       .  A
C690        O694   1.276       .  A
C691        C716   1.431       .  S
C696        O697   1.269       .  A
C696        C713   1.426       .  S
O698        C714   1.274       .  A
O698       Zn704   2.028       .  S
C699        O715   1.273       .  A
C699        O712   1.273       .  A
O700        C713   1.267       .  A
O700       Cd707   2.016       .  S
O701        C719   1.274       .  A
O701       Cd710   2.070       .  S
O702        C716   1.269       .  A
O702       Cd706   2.031       .  S
O703        C714   1.275       .  A
O703       Cd706   2.069       .  S
Zn704       O715   2.023       .  S
Zn704       O717   1.973       .  S
Zn704       O709   1.948       .  S
O705        C716   1.269       .  A
O705       Cd710   2.031       .  S
Cd706       O708   2.083       .  S
Cd706       O709   1.989       .  S
Cd707       O711   2.070       .  S
Cd707       O720   2.064       .  S
Cd707       O709   1.991       .  S
O708        C718   1.275       .  A
O709       Cd710   1.988       .  S
Cd710       O712   2.066       .  S
O711        C718   1.273       .  A
C713        O717   1.269       .  A
C719        O720   1.272       .  A
C721        C722   1.409       .  A
C721        C726   1.408       .  A
C721        H728   1.080       .  S
C722        C723   1.419       .  A
C723        C724   1.411       .  A
C723        N730   1.437       .  S
C724        C725   1.409       .  A
C724        H729   1.078       .  S
C725        C726   1.428       .  A
C726        N727   1.439       .  S
N727        H731   1.045       .  S
N727        H732   1.040       .  S
N730        H733   1.044       .  S
N730        H734   1.046       .  S
C735        C736   1.410       .  A
C735        C740   1.411       .  A
C735        H742   1.081       .  S
C736        C737   1.427       .  A
C737        C738   1.408       .  A
C737        N744   1.438       .  S
C738        C739   1.408       .  A
C738        H743   1.080       .  S
C739        C740   1.418       .  A
C740        N741   1.438       .  S
N741        H745   1.045       .  S
N741        H746   1.045       .  S
N744        H747   1.041       .  S
N744        H748   1.044       .  S
C749        C750   1.409       .  A
C749        C754   1.411       .  A
C749        H756   1.081       .  S
C750        C751   1.418       .  A
C751        C752   1.410       .  A
C751        N758   1.432       .  S
C752        C753   1.408       .  A
C752        H757   1.081       .  S
C753        C754   1.420       .  A
C754        N755   1.438       .  S
N755        H759   1.045       .  S
N755        H760   1.045       .  S
N758        H761   1.046       .  S
N758        H762   1.046       .  S
C763        C764   1.410       .  A
C763        C768   1.412       .  A
C763        H770   1.080       .  S
C764        C765   1.429       .  A
C765        C766   1.407       .  A
C765        N772   1.437       .  S
C766        C767   1.405       .  A
C766        H771   1.083       .  S
C767        C768   1.419       .  A
C768        N769   1.437       .  S
N769        H773   1.045       .  S
N769        H774   1.046       .  S
N772        H775   1.040       .  S
N772        H776   1.043       .  S
C777        C778   1.402       .  A
C777        C782   1.404       .  A
C777        H784   1.084       .  S
C778       C1667   1.416   1_545  A
C778       N1415   1.434   1_545  S
C779       C1666   1.416       .  A
C779       C1668   1.397       .  A
C779        N786   1.439       .  S
C780       C1667   1.398   1_545  A
C780        C781   1.399       .  A
C780        H785   1.084       .  S
C781        C782   1.416       .  A
C782        N783   1.438       .  S
N783        H787   1.046       .  S
N783        H788   1.043       .  S
N786        H789   1.042       .  S
N786        H790   1.046       .  S
C791        C792   1.403   1_545  A
C791        C796   1.406       .  A
C791        H798   1.083       .  S
C792       C1237   1.417   1_556  A
C792       N1392   1.435       .  S
C793       C1236   1.416       .  A
C793       C1682   1.399       .  A
C793        N800   1.439       .  S
C794       C1681   1.399   1_545  A
C794        H799   1.084       .  S
C795        C796   1.409       .  A
C796        N797   1.437       .  S
N797        H801   1.046       .  S
N797        H802   1.046       .  S
N800        H803   1.042       .  S
N800        H804   1.046       .  S
C805        C806   1.412       .  A
C805        C810   1.411       .  A
C805        H812   1.081       .  S
C806        C807   1.429       .  A
C807        C808   1.406       .  A
C807        N814   1.439       .  S
C808        C809   1.407       .  A
C808        H813   1.081       .  S
C809        C810   1.414       .  A
C810        N811   1.432       .  S
N811        H815   1.046       .  S
N811        H816   1.046       .  S
N814        H817   1.038       .  S
N814        H818   1.046       .  S
C819        C820   1.407       .  A
C819        C824   1.407       .  A
C819        H826   1.082       .  S
C820        C821   1.417       .  A
C821        C822   1.407       .  A
C821        N828   1.438       .  S
C822        C823   1.409       .  A
C822        H827   1.080       .  S
C823        C824   1.429       .  A
C824        N825   1.439       .  S
N825        H829   1.046       .  S
N825        H830   1.039       .  S
N828        H831   1.045       .  S
N828        H832   1.045       .  S
C833        C834   1.403       .  A
C833       C2614   1.404       .  A
C833        H840   1.083       .  S
C834       C2611   1.414       .  A
C835       C2610   1.414   1_455  A
C835        C836   1.399       .  A
C835        N842   1.431       .  S
C836        C837   1.401       .  A
C836        H841   1.084       .  S
C837        C838   1.413       .  A
C838       C2609   1.404   1_455  A
C838        N839   1.431   1_455  S
N839       H2619   1.044   1_655  S
N839        H844   1.046   1_655  S
N842        H845   1.045       .  S
N842        H846   1.042       .  S
H843       N2615   1.044       .  S
C847        C852   1.396       .  A
C847        H854   1.084       .  S
C848       C2625   1.412   1_554  A
C848       N2234   1.437   1_554  S
C849       C2624   1.413       .  A
C849       C2626   1.403       .  A
C849        N856   1.432       .  S
C850       C2625   1.403   1_455  A
C850        C851   1.405   1_556  A
C850        H855   1.083       .  S
C852        N853   1.430       .  S
N853        H857   1.041       .  S
N853        H858   1.046       .  S
N856        H859   1.046       .  S
N856        H860   1.044       .  S
C861        C862   1.406       .  A
C861        C866   1.410       .  A
C861        H868   1.083       .  S
C862        C863   1.421       .  A
C863        C864   1.409       .  A
C863        N870   1.438       .  S
C864        C865   1.409       .  A
C864        H869   1.081       .  S
C865        C866   1.429       .  A
C866        N867   1.436       .  S
N867        H871   1.044       .  S
N867        H872   1.040       .  S
N870        H873   1.046       .  S
N870        H874   1.045       .  S
C875        C876   1.406       .  A
C875        C880   1.407       .  A
C875        H882   1.082       .  S
C876        C877   1.418       .  A
C877        C878   1.408       .  A
C877        N884   1.438       .  S
C878        C879   1.409       .  A
C878        H883   1.081       .  S
C879        C880   1.428       .  A
C880        N881   1.439       .  S
N881        H885   1.046       .  S
N881        H886   1.039       .  S
N884        H887   1.045       .  S
N884        H888   1.046       .  S
C889        C891   1.528       .  S
C889        C893   1.546       .  S
C889        C892   1.541       .  S
C889       C1306   1.549       .  S
C890        C894   1.527       .  S
C890        C896   1.549       .  S
C890        C895   1.544       .  S
C890       C1323   1.550       .  S
C891        C899   1.376       .  A
C891       C1338   1.387       .  A
C892        C903   1.378       .  A
C892       C1339   1.400       .  A
C893        C907   1.383       .  A
C893       C1340   1.418       .  A
C894       C1335   1.388   1_554  A
C894        C897   1.374       .  A
C895       C1336   1.400   1_554  A
C895        C901   1.376       .  A
C896       C1337   1.417   1_554  A
C896        C904   1.385       .  A
C897        N898   1.355   1_554  A
C897        H910   1.083       .  S
N898       C1343   1.357       .  A
N898        C999   1.427       .  S
C899       N1342   1.357       .  A
C899        H900   1.083       .  S
C901       N1346   1.356   1_554  A
C901        H911   1.081       .  S
N902       C1345   1.356       .  A
N902        C903   1.357       .  A
N902       C3068   1.433       .  S
C903        H909   1.082       .  S
C904        N905   1.349   1_554  A
C904        H906   1.082       .  S
N905       C1351   1.348       .  A
N905       C1137   1.429       .  S
C907       N1349   1.348       .  A
C907        H908   1.083       .  S
C912        C914   1.532       .  S
C912        C916   1.544       .  S
C912        C915   1.548       .  S
C912       C1320   1.546       .  S
C913        C917   1.533       .  S
C913        C919   1.556       .  S
C913        C918   1.546       .  S
C913       C1309   1.554       .  S
C914        C922   1.379       .  A
C914        C917   1.389       .  A
C915        C926   1.383       .  A
C915        C918   1.400       .  A
C916        C930   1.384       .  A
C916        C919   1.413       .  A
C917        C920   1.378       .  A
C918        C924   1.380       .  A
C919        C927   1.389       .  A
C920        N921   1.357       .  A
C920        H933   1.083       .  S
N921        C922   1.357       .  A
N921       C1025   1.432       .  S
C922        H923   1.083       .  S
C924        N925   1.358       .  A
C924        H934   1.081       .  S
N925        C926   1.358       .  A
N925       C1278   1.440       .  S
C926        H932   1.082       .  S
C927        N928   1.351       .  A
C927        H929   1.082       .  S
N928        C930   1.350       .  A
N928       C1162   1.433       .  S
C930        H931   1.083       .  S
C935        C937   1.539       .  S
C935        C939   1.538       .  S
C935        C938   1.549       .  S
C935       C1253   1.548       .  S
C936        C940   1.540       .  S
C936        C942   1.535       .  S
C936        C941   1.541       .  S
C936       C1264   1.545       .  S
C937        C945   1.381       .  A
C937       C1384   1.397       .  A
C938        C949   1.381       .  A
C938       C1385   1.401       .  A
C939        C953   1.379       .  A
C939       C1386   1.410       .  A
C940       C1381   1.394   1_554  A
C940        C943   1.380       .  A
C941       C1382   1.404   1_554  A
C941        C947   1.379       .  A
C942       C1383   1.411   1_554  A
C942        C950   1.382       .  A
C943       N1388   1.356   1_554  A
C943        H956   1.082       .  S
N944       C1387   1.354       .  A
N944        C945   1.354       .  A
N944        C997   1.430       .  S
C945        H946   1.082       .  S
C947       N1392   1.354   1_554  A
C947        H957   1.082       .  S
N948       C1391   1.355       .  A
N948        C949   1.354       .  A
C949        H955   1.082       .  S
C950       N1395   1.350       .  A
C950        H952   1.083       .  S
N951       C1394   1.351       .  A
N951        C953   1.352       .  A
N951       C1583   1.429       .  S
C953        H954   1.083       .  S
C958        C960   1.552       .  S
C958        C962   1.529       .  S
C958        C961   1.539       .  S
C958       C1267   1.548       .  S
C959        C963   1.556       .  S
C959        C965   1.528       .  S
C959        C964   1.542       .  S
C959       C1250   1.551       .  S
C960        C968   1.389       .  A
C960        C963   1.424       .  A
C961        C972   1.377       .  A
C961        C964   1.397       .  A
C962        C976   1.378       .  A
C962        C965   1.385       .  A
C963        C966   1.388       .  A
C964        C970   1.376       .  A
C965        C973   1.376       .  A
C966        N967   1.351       .  A
C966        H979   1.082       .  S
N967        C968   1.350       .  A
N967       C1019   1.437       .  S
C968        H969   1.082       .  S
C970        N971   1.357       .  A
C970        H980   1.082       .  S
N971        C972   1.356       .  A
C972        H978   1.082       .  S
C973        N974   1.355       .  A
C973        H975   1.083       .  S
N974        C976   1.355       .  A
N974       C1163   1.426       .  S
C976        H977   1.083       .  S
O981        C997   1.275       .  A
O981      Zn2763   2.029       .  S
C982        O995   1.268       .  A
C982       C1005   1.441       .  S
O983       C1440   1.276   1_554  A
O984       C1002   1.272       .  A
O984       Cd993   2.065       .  S
O985        C999   1.273   1_554  A
O985       Cd989   2.068       .  S
O986       C1441   1.273   1_554  A
Zn987      O2757   2.029   1_455  S
Zn987       O998   1.980   1_565  S
Zn987      O1000   2.042       .  S
O988       C3219   1.271       .  A
O988       Cd993   2.056   1_655  S
Cd989       O991   2.024       .  S
Cd989      O3212   1.995   1_554  S
Cd990       O994   2.033       .  S
Cd990      O1003   2.091       .  S
Cd990      O1436   1.990   1_554  S
O991       C2777   1.269       .  A
O992      Cd3209   1.995   1_455  S
O992      Cd1434   1.989       .  S
O992       Cd993   1.991       .  S
Cd993       O995   2.016       .  S
O994       C1001   1.272       .  A
C996       N1036   1.437       .  S
C996       O1427   1.275       .  A
C996       O1000   1.276       .  A
C997       O1430   1.272       .  A
C999       O3208   1.272       .  A
C1001      O2767   1.269   1_455  A
C1001      C1024   1.441       .  S
C1002      N1089   1.433       .  S
C1002      O1447   1.276       .  A
O1003      C1446   1.277   1_554  A
O1004      C1020   1.273       .  A
O1004     Zn1010   2.027       .  S
C1005      O1018   1.271       .  A
O1006      C1019   1.276       .  A
O1007      C2801   1.275       .  A
O1007     Cd1016   2.070   1_655  S
O1008      C1022   1.273       .  A
O1008     Cd1012   2.071       .  S
O1009      C1020   1.272       .  A
Zn1010     O1021   1.970   1_565  S
Zn1010     O2799   2.021   1_455  S
O1011      C1022   1.276       .  A
O1011     Cd1016   2.089       .  S
Cd1012     O1014   2.014       .  S
Cd1012     O1015   1.987       .  S
Cd1013     O1017   2.039       .  S
Cd1013     O1026   2.084       .  S
Cd1013     O2791   2.000       .  S
O1014      C1024   1.268       .  A
O1015     Cd2789   1.999   1_455  S
O1015     Cd1016   1.992       .  S
Cd1016     O1018   2.027       .  S
O1017      C2800   1.272       .  A
C1019      O1023   1.274       .  A
C1020      N1059   1.430       .  S
C1022      N1112   1.435       .  S
O1023     Zn2786   2.026       .  S
C1024      O2793   1.272   1_455  A
C1025      O2783   1.275       .  A
C1025      O1026   1.276       .  A
C1027      C1029   1.542       .  S
C1027      C1031   1.547       .  S
C1027      C1030   1.539       .  S
C1027      C1194   1.547       .  S
C1028      C1032   1.550       .  S
C1028      C1034   1.538       .  S
C1028      C1033   1.545       .  S
C1028      C1208   1.551       .  S
C1029      C1037   1.383       .  A
C1029      C1476   1.405       .  A
C1030      C1041   1.376       .  A
C1030      C1477   1.400       .  A
C1031      C1045   1.386       .  A
C1031      C1478   1.396       .  A
C1032      C1473   1.405   1_554  A
C1032      C1035   1.386       .  A
C1033      C1474   1.399   1_554  A
C1033      C1039   1.379       .  A
C1034      C1475   1.396   1_554  A
C1034      C1042   1.380       .  A
C1035      N1480   1.355   1_554  A
C1035      H1048   1.082       .  S
N1036      C1479   1.356       .  A
N1036      C1037   1.355       .  A
C1037      H1038   1.082       .  S
C1039      N1484   1.355       .  A
C1039      H1049   1.081       .  S
N1040      C1483   1.356       .  A
N1040      C1041   1.353       .  A
N1040      C1295   1.431       .  S
C1041      H1047   1.081       .  S
C1042      N1487   1.356   1_554  A
C1042      H1044   1.083       .  S
N1043      C1486   1.356       .  A
N1043      C1045   1.358       .  A
N1043      C1134   1.436       .  S
C1045      H1046   1.082       .  S
C1050      C1052   1.546       .  S
C1050      C1054   1.533       .  S
C1050      C1053   1.547       .  S
C1050      C1211   1.548       .  S
C1051      C1055   1.534       .  S
C1051      C1057   1.541       .  S
C1051      C1056   1.549       .  S
C1051      C1197   1.546       .  S
C1052      C1060   1.382       .  A
C1052      C1055   1.405       .  A
C1053      C1064   1.381       .  A
C1053      C1056   1.401       .  A
C1054      C1068   1.379       .  A
C1054      C1057   1.396       .  A
C1055      C1058   1.381       .  A
C1056      C1062   1.382       .  A
C1057      C1065   1.380       .  A
C1058      N1059   1.352       .  A
C1058      H1071   1.083       .  S
N1059      C1060   1.352       .  A
C1060      H1061   1.082       .  S
C1062      N1063   1.359       .  A
C1062      H1072   1.082       .  S
N1063      C1064   1.358       .  A
N1063      C1281   1.440       .  S
C1064      H1070   1.082       .  S
C1065      N1066   1.354       .  A
C1065      H1067   1.082       .  S
N1066      C1068   1.355       .  A
N1066      C1143   1.429       .  S
C1068      H1069   1.082       .  S
C1073      C1075   1.535       .  S
C1073      C1077   1.547       .  S
C1073      C1076   1.533       .  S
C1073      C1180   1.547       .  S
C1074      C1078   1.547       .  S
C1074      C1080   1.554       .  S
C1074      C1079   1.537       .  S
C1074      C1166   1.548       .  S
C1075      C1083   1.373       .  A
C1075      C1522   1.396   1_554  A
C1076      C1087   1.377       .  A
C1076      C1523   1.392   1_554  A
C1077      C1091   1.383       .  A
C1077      C1524   1.406   1_554  A
C1078      C1519   1.397       .  A
C1078      C1081   1.386       .  A
C1079      C1520   1.393       .  A
C1079      C1085   1.377       .  A
C1080      C1521   1.405       .  A
C1080      C1088   1.382       .  A
C1081      N1082   1.357       .  A
C1081      H1094   1.081       .  S
N1082      C1527   1.355       .  A
N1082      C1120   1.430       .  S
C1083      N1526   1.355   1_554  A
C1083      H1084   1.083       .  S
C1085      N1086   1.356       .  A
C1085      H1095   1.083       .  S
N1086      C1531   1.356       .  A
N1086      C1239   1.433       .  S
C1087      N1530   1.356   1_554  A
C1087      H1093   1.082       .  S
C1088      N1089   1.356       .  A
C1088      H1090   1.081       .  S
N1089      C1535   1.354       .  A
C1091      N1533   1.355   1_554  A
C1091      H1092   1.082       .  S
C1096      C1098   1.543       .  S
C1096      C1100   1.555       .  S
C1096      C1099   1.535       .  S
C1096      C1169   1.551       .  S
C1097      C1101   1.537       .  S
C1097      C1103   1.546       .  S
C1097      C1102   1.543       .  S
C1097      C1183   1.545       .  S
C1098      C1106   1.378       .  A
C1098      C1101   1.399       .  A
C1099      C1110   1.375       .  A
C1099      C1102   1.394       .  A
C1100      C1114   1.386       .  A
C1100      C1103   1.401       .  A
C1101      C1104   1.379       .  A
C1102      C1108   1.382       .  A
C1103      C1111   1.381       .  A
C1104      N1105   1.356       .  A
C1104      H1117   1.083       .  S
N1105      C1106   1.355       .  A
N1105      C1158   1.431       .  S
C1106      H1107   1.079       .  S
C1108      N1109   1.358       .  A
C1108      H1118   1.082       .  S
N1109      C1110   1.354       .  A
N1109      C1225   1.434       .  S
C1110      H1116   1.083       .  S
C1111      N1112   1.356       .  A
C1111      H1113   1.082       .  S
N1112      C1114   1.356       .  A
C1114      H1115   1.081       .  S
O1119      C1135   1.270       .  A
O1119     Zn1125   1.983       .  S
C1120      O1136   1.276       .  A
C1120      O1577   1.271       .  A
O1121      C1578   1.275   1_554  A
O1121     Cd1128   2.076       .  S
O1122      C1140   1.267       .  A
O1122     Cd1131   2.020       .  S
O1123      C1581   1.272       .  A
O1123     Cd1127   2.065       .  S
O1124      C1135   1.268       .  A
O1124     Cd1127   2.025       .  S
Zn1125     O1136   2.041       .  S
Zn1125     O1138   2.041       .  S
Zn1125     O1130   1.946       .  S
O1126      C1137   1.273   1_554  A
O1126     Cd1131   2.068       .  S
Cd1127     O1129   2.055       .  S
Cd1127     O1130   1.990       .  S
Cd1128     O1132   2.084       .  S
Cd1128     O1141   2.038       .  S
Cd1128     O1574   1.992   1_554  S
O1129      C1583   1.272       .  A
O1130     Cd1572   1.993       .  S
O1130     Cd1575   1.985       .  S
Cd1131     O1133   2.050       .  S
Cd1131     O1574   1.984   1_554  S
O1132      C1139   1.277   1_554  A
O1133      C1564   1.272   1_554  A
C1134      O1565   1.275       .  A
C1134      O1138   1.277       .  A
C1135      C1160   1.431       .  S
C1137      O1567   1.272       .  A
C1139      N1395   1.430   1_556  S
C1139      O1573   1.272       .  A
C1140      O1141   1.270       .  A
C1140      C1157   1.429       .  S
O1142      C1158   1.274       .  A
O1142     Zn1148   2.031       .  S
C1143      O1159   1.274       .  A
C1143      O1156   1.273       .  A
O1144      C1157   1.267       .  A
O1144     Cd1151   2.016       .  S
O1145      C1163   1.273       .  A
O1145     Cd1154   2.062       .  S
O1146      C1160   1.269       .  A
O1146     Cd1150   2.034       .  S
O1147      C1158   1.275       .  A
O1147     Cd1150   2.065       .  S
Zn1148     O1159   2.026       .  S
Zn1148     O1161   1.983       .  S
Zn1148     O1153   1.948       .  S
O1149      C1160   1.268       .  A
O1149     Cd1154   2.028       .  S
Cd1150     O1152   2.083       .  S
Cd1150     O1153   1.987       .  S
Cd1151     O1155   2.070       .  S
Cd1151     O1164   2.063       .  S
Cd1151     O1153   1.991       .  S
O1152      C1162   1.275       .  A
O1153     Cd1154   1.989       .  S
Cd1154     O1156   2.064       .  S
O1155      C1162   1.273       .  A
C1157      O1161   1.270       .  A
C1163      O1164   1.272       .  A
C1165      C1166   1.408       .  A
C1165      C1170   1.407       .  A
C1165      H1172   1.080       .  S
C1166      C1167   1.419       .  A
C1167      C1168   1.410       .  A
C1167      N1174   1.437       .  S
C1168      C1169   1.409       .  A
C1168      H1173   1.078       .  S
C1169      C1170   1.428       .  A
C1170      N1171   1.439       .  S
N1171      H1175   1.045       .  S
N1171      H1176   1.040       .  S
N1174      H1177   1.044       .  S
N1174      H1178   1.046       .  S
C1179      C1180   1.410       .  A
C1179      C1184   1.410       .  A
C1179      H1186   1.081       .  S
C1180      C1181   1.427       .  A
C1181      C1182   1.407       .  A
C1181      N1188   1.438       .  S
C1182      C1183   1.407       .  A
C1182      H1187   1.080       .  S
C1183      C1184   1.417       .  A
C1184      N1185   1.438       .  S
N1185      H1189   1.045       .  S
N1185      H1190   1.045       .  S
N1188      H1191   1.041       .  S
N1188      H1192   1.044       .  S
C1193      C1194   1.408       .  A
C1193      C1198   1.410       .  A
C1193      H1200   1.081       .  S
C1194      C1195   1.418       .  A
C1195      C1196   1.410       .  A
C1195      N1202   1.432       .  S
C1196      C1197   1.408       .  A
C1196      H1201   1.082       .  S
C1197      C1198   1.420       .  A
C1198      N1199   1.438       .  S
N1199      H1203   1.046       .  S
N1199      H1204   1.045       .  S
N1202      H1205   1.046       .  S
N1202      H1206   1.046       .  S
C1207      C1208   1.409       .  A
C1207      C1212   1.411       .  A
C1207      H1214   1.080       .  S
C1208      C1209   1.429       .  A
C1209      C1210   1.407       .  A
C1209      N1216   1.438       .  S
C1210      C1211   1.406       .  A
C1210      H1215   1.083       .  S
C1211      C1212   1.419       .  A
C1212      N1213   1.437       .  S
N1213      H1217   1.045       .  S
N1213      H1218   1.046       .  S
N1216      H1219   1.039       .  S
N1216      H1220   1.045       .  S
C1221      C1222   1.402       .  A
C1221      C1226   1.403       .  A
C1221      H1228   1.084       .  S
C1223      N1230   1.439       .  S
C1224      C1225   1.400       .  A
C1224      H1229   1.084       .  S
C1225      C1226   1.416       .  A
C1226      N1227   1.438       .  S
N1227      H1231   1.046       .  S
N1227      H1232   1.043       .  S
N1230      H1233   1.042       .  S
N1230      H1234   1.046       .  S
C1235      C1236   1.403       .  A
C1235      C1240   1.405       .  A
C1235      H1242   1.083       .  S
C1237      N1244   1.439       .  S
C1238      C1683   1.399   1_554  A
C1238      H1243   1.084       .  S
C1239      C1682   1.400       .  A
C1239      C1240   1.408       .  A
C1240      N1241   1.437       .  S
N1241      H1245   1.046       .  S
N1241      H1246   1.046       .  S
N1244      H1247   1.042       .  S
N1244      H1248   1.046       .  S
C1249      C1250   1.412       .  A
C1249      C1254   1.410       .  A
C1249      H1256   1.081       .  S
C1250      C1251   1.430       .  A
C1251      C1252   1.407       .  A
C1251      N1258   1.439       .  S
C1252      C1253   1.407       .  A
C1252      H1257   1.081       .  S
C1253      C1254   1.414       .  A
C1254      N1255   1.432       .  S
N1255      H1259   1.045       .  S
N1255      H1260   1.046       .  S
N1258      H1261   1.038       .  S
N1258      H1262   1.046       .  S
C1263      C1264   1.407       .  A
C1263      C1268   1.407       .  A
C1263      H1270   1.081       .  S
C1264      C1265   1.417       .  A
C1265      C1266   1.410       .  A
C1265      N1272   1.438       .  S
C1266      C1267   1.410       .  A
C1266      H1271   1.081       .  S
C1267      C1268   1.429       .  A
C1268      N1269   1.439       .  S
N1269      H1273   1.046       .  S
N1269      H1274   1.039       .  S
N1272      H1275   1.045       .  S
N1272      H1276   1.045       .  S
C1277      C1278   1.403       .  A
C1277      C3058   1.404       .  A
C1277      H1284   1.083       .  S
C1278      C3055   1.414       .  A
C1279      C3054   1.414   1_455  A
C1279      C1280   1.401       .  A
C1279      N1286   1.431       .  S
C1280      C1281   1.401       .  A
C1280      H1285   1.083       .  S
C1281      C1282   1.414       .  A
C1282      C3053   1.404   1_455  A
C1282      N1283   1.431       .  S
N1283      H3063   1.044       .  S
N1283      H1288   1.046       .  S
N1286      H1289   1.045       .  S
N1286      H1290   1.042       .  S
H1287      N3059   1.044       .  S
C1291      C1736   1.401   1_455  A
C1291      C1296   1.397       .  A
C1291      H1298   1.084       .  S
C1292      C1735   1.402   1_655  A
C1292      C3069   1.410       .  A
C1292      N2678   1.432       .  S
C1293      C3068   1.410       .  A
C1293      C3070   1.400       .  A
C1293      N1300   1.432       .  S
C1294      C3069   1.400   1_455  A
C1294      C1295   1.403       .  A
C1294      H1299   1.083       .  S
C1295      C1740   1.409       .  A
C1296      C1739   1.410       .  A
C1296      N1297   1.431       .  S
N1297      H1301   1.043       .  S
N1297      H1302   1.045       .  S
N1300      H1303   1.046       .  S
N1300      H1304   1.044       .  S
C1305      C1306   1.407       .  A
C1305      C1310   1.411       .  A
C1305      H1312   1.083       .  S
C1306      C1307   1.420       .  A
C1307      C1308   1.409       .  A
C1307      N1314   1.437       .  S
C1308      C1309   1.409       .  A
C1308      H1313   1.080       .  S
C1309      C1310   1.429       .  A
C1310      N1311   1.436       .  S
N1311      H1315   1.044       .  S
N1311      H1316   1.040       .  S
N1314      H1317   1.046       .  S
N1314      H1318   1.045       .  S
C1319      C1320   1.407       .  A
C1319      C1324   1.408       .  A
C1319      H1326   1.083       .  S
C1320      C1321   1.419       .  A
C1321      C1322   1.409       .  A
C1321      N1328   1.437       .  S
C1322      C1323   1.409       .  A
C1322      H1327   1.080       .  S
C1323      C1324   1.428       .  A
C1324      N1325   1.438       .  S
N1325      H1329   1.046       .  S
N1325      H1330   1.039       .  S
N1328      H1331   1.045       .  S
N1328      H1332   1.046       .  S
C1333      C1335   1.529       .  S
C1333      C1337   1.545       .  S
C1333      C1336   1.541       .  S
C1333      C1750   1.547       .  S
C1334      C1338   1.526       .  S
C1334      C1340   1.549       .  S
C1334      C1339   1.545       .  S
C1334      C1767   1.549       .  S
C1335      C1343   1.376       .  A
C1336      C1347   1.378       .  A
C1337      C1351   1.382       .  A
C1338      C1341   1.373       .  A
C1339      C1345   1.375       .  A
C1340      C1348   1.386       .  A
C1341      N1342   1.354       .  A
C1341      H1354   1.083       .  S
N1342      C1443   1.425       .  S
C1343      H1344   1.083       .  S
C1345      H1355   1.081       .  S
N1346      C1347   1.357       .  A
N1346      C3512   1.432   1_556  S
C1347      H1353   1.082       .  S
C1348      N1349   1.349       .  A
C1348      H1350   1.082       .  S
N1349      C1581   1.429       .  S
C1351      H1352   1.083       .  S
C1356      C1358   1.533       .  S
C1356      C1360   1.543       .  S
C1356      C1359   1.546       .  S
C1356      C1764   1.544       .  S
C1357      C1361   1.533       .  S
C1357      C1363   1.554       .  S
C1357      C1362   1.546       .  S
C1357      C1753   1.551       .  S
C1358      C1366   1.379       .  A
C1358      C1361   1.390       .  A
C1359      C1370   1.381       .  A
C1359      C1362   1.400       .  A
C1360      C1374   1.383       .  A
C1360      C1363   1.408       .  A
C1361      C1364   1.377       .  A
C1362      C1368   1.380       .  A
C1363      C1371   1.387       .  A
C1364      N1365   1.358       .  A
C1364      H1377   1.083       .  S
N1365      C1366   1.358       .  A
N1365      C1469   1.432       .  S
C1366      H1367   1.083       .  S
C1368      N1369   1.357       .  A
C1368      H1378   1.080       .  S
N1369      C1370   1.357       .  A
N1369      C1722   1.438       .  S
C1370      H1376   1.081       .  S
C1371      N1372   1.354       .  A
C1371      H1373   1.082       .  S
N1372      C1374   1.352       .  A
N1372      C1606   1.434       .  S
C1374      H1375   1.083       .  S
C1379      C1381   1.538       .  S
C1379      C1383   1.539       .  S
C1379      C1382   1.551       .  S
C1379      C1697   1.548       .  S
C1380      C1384   1.540       .  S
C1380      C1386   1.535       .  S
C1380      C1385   1.540       .  S
C1380      C1708   1.546       .  S
C1381      C1389   1.380       .  A
C1382      C1393   1.384       .  A
C1383      C1397   1.381       .  A
C1384      C1387   1.379       .  A
C1385      C1391   1.378       .  A
C1386      C1394   1.382       .  A
C1387      H1400   1.082       .  S
N1388      C1389   1.355       .  A
N1388      C1441   1.431       .  S
C1389      H1390   1.082       .  S
C1391      H1401   1.082       .  S
N1392      C1393   1.354       .  A
C1393      H1399   1.082       .  S
C1394      H1396   1.083       .  S
N1395      C1397   1.352   1_554  A
C1397      H1398   1.083       .  S
C1402      C1404   1.551       .  S
C1402      C1406   1.530       .  S
C1402      C1405   1.540       .  S
C1402      C1711   1.549       .  S
C1403      C1407   1.555       .  S
C1403      C1409   1.529       .  S
C1403      C1408   1.542       .  S
C1403      C1694   1.551       .  S
C1404      C1412   1.387       .  A
C1404      C1407   1.426       .  A
C1405      C1416   1.378       .  A
C1405      C1408   1.397       .  A
C1406      C1420   1.379       .  A
C1406      C1409   1.385       .  A
C1407      C1410   1.388       .  A
C1408      C1414   1.377       .  A
C1409      C1417   1.377       .  A
C1410      N1411   1.350       .  A
C1410      H1423   1.082       .  S
N1411      C1412   1.348       .  A
N1411      C1463   1.433       .  S
C1412      H1413   1.082       .  S
C1414      N1415   1.357       .  A
C1414      H1424   1.082       .  S
N1415      C1416   1.356       .  A
C1416      H1422   1.082       .  S
C1417      N1418   1.355       .  A
C1417      H1419   1.083       .  S
N1418      C1420   1.356       .  A
N1418      C1607   1.429       .  S
C1420      H1421   1.083       .  S
O1425      C1441   1.276       .  A
O1425     Zn3207   2.034       .  S
C1426      O1439   1.268       .  A
C1426      C1449   1.440       .  S
O1428      C1446   1.273       .  A
O1428     Cd1437   2.072       .  S
O1429      C1443   1.273       .  A
O1429     Cd1433   2.067       .  S
Zn1431     O3201   2.038   1_455  S
Zn1431     O1442   1.990   1_565  S
Zn1431     O1444   2.045       .  S
O1432      C2775   1.272       .  A
O1432     Cd1437   2.060   1_655  S
Cd1433     O1435   2.025       .  S
Cd1433     O2768   1.995       .  S
Cd1434     O1438   2.030       .  S
Cd1434     O1447   2.085       .  S
O1435      C3221   1.269       .  A
O1436     Cd2765   1.995   1_456  S
O1436     Cd1437   1.990       .  S
Cd1437     O1439   2.011       .  S
O1438      C1445   1.271       .  A
C1440      N1480   1.437       .  S
C1440      O1444   1.277       .  A
C1443      O2764   1.271       .  A
C1445      O3211   1.269   1_455  A
C1445      C1468   1.440       .  S
C1446      N1533   1.436       .  S
O1448      C1464   1.273       .  A
O1448     Zn1454   2.025       .  S
C1449      O1462   1.271       .  A
O1450      C1463   1.276       .  A
O1451      C3245   1.275       .  A
O1451     Cd1460   2.073   1_655  S
O1452      C1466   1.272       .  A
O1452     Cd1456   2.067       .  S
O1453      C1464   1.271       .  A
Zn1454     O1465   1.967   1_565  S
Zn1454     O3243   2.017   1_455  S
O1455      C1466   1.277       .  A
O1455     Cd1460   2.099       .  S
Cd1456     O1458   2.014       .  S
Cd1456     O1459   1.985       .  S
Cd1457     O1461   2.035       .  S
Cd1457     O1470   2.084       .  S
Cd1457     O3235   2.000       .  S
O1458      C1468   1.269       .  A
O1459     Cd3233   2.001   1_455  S
O1459     Cd1460   1.992       .  S
Cd1460     O1462   2.025       .  S
O1461      C3244   1.271       .  A
C1463      O1467   1.273       .  A
C1464      N1503   1.429       .  S
C1466      N1556   1.437       .  S
O1467     Zn3230   2.018       .  S
C1468      O3237   1.272   1_455  A
C1469      O3227   1.275       .  A
C1469      O1470   1.276       .  A
C1471      C1473   1.542       .  S
C1471      C1475   1.547       .  S
C1471      C1474   1.541       .  S
C1471      C1638   1.546       .  S
C1472      C1476   1.550       .  S
C1472      C1478   1.537       .  S
C1472      C1477   1.547       .  S
C1472      C1652   1.553       .  S
C1473      C1481   1.384       .  A
C1474      C1485   1.378       .  A
C1475      C1489   1.386       .  A
C1476      C1479   1.386       .  A
C1477      C1483   1.380       .  A
C1478      C1486   1.379       .  A
C1479      H1492   1.082       .  S
N1480      C1481   1.355       .  A
C1481      H1482   1.082       .  S
C1483      H1493   1.081       .  S
N1484      C1485   1.354   1_554  A
N1484      C1739   1.432       .  S
C1485      H1491   1.081       .  S
C1486      H1488   1.083       .  S
N1487      C1489   1.358       .  A
N1487      C1578   1.436       .  S
C1489      H1490   1.082       .  S
C1494      C1496   1.547       .  S
C1494      C1498   1.533       .  S
C1494      C1497   1.546       .  S
C1494      C1655   1.550       .  S
C1495      C1499   1.534       .  S
C1495      C1501   1.540       .  S
C1495      C1500   1.546       .  S
C1495      C1641   1.545       .  S
C1496      C1504   1.383       .  A
C1496      C1499   1.410       .  A
C1497      C1508   1.381       .  A
C1497      C1500   1.401       .  A
C1498      C1512   1.379       .  A
C1498      C1501   1.394       .  A
C1499      C1502   1.382       .  A
C1500      C1506   1.380       .  A
C1501      C1509   1.379       .  A
C1502      N1503   1.351       .  A
C1502      H1515   1.083       .  S
N1503      C1504   1.350       .  A
C1504      H1505   1.082       .  S
C1506      N1507   1.355       .  A
C1506      H1516   1.082       .  S
N1507      C1508   1.356       .  A
N1507      C1725   1.435       .  S
C1508      H1514   1.082       .  S
C1509      N1510   1.354       .  A
C1509      H1511   1.082       .  S
N1510      C1512   1.356       .  A
N1510      C1587   1.429       .  S
C1512      H1513   1.082       .  S
C1517      C1519   1.535       .  S
C1517      C1521   1.545       .  S
C1517      C1520   1.534       .  S
C1517      C1624   1.549       .  S
C1518      C1522   1.548       .  S
C1518      C1524   1.556       .  S
C1518      C1523   1.537       .  S
C1518      C1610   1.548       .  S
C1519      C1527   1.372       .  A
C1520      C1531   1.376       .  A
C1521      C1535   1.381       .  A
C1522      C1525   1.387       .  A
C1523      C1529   1.376       .  A
C1524      C1532   1.384       .  A
C1525      N1526   1.358       .  A
C1525      H1538   1.081       .  S
N1526      C1564   1.432       .  S
C1527      H1528   1.083       .  S
C1529      N1530   1.356       .  A
C1529      H1539   1.083       .  S
N1530      C1683   1.432       .  S
C1531      H1537   1.081       .  S
C1532      N1533   1.356       .  A
C1532      H1534   1.081       .  S
C1535      H1536   1.082       .  S
C1540      C1542   1.543       .  S
C1540      C1544   1.555       .  S
C1540      C1543   1.535       .  S
C1540      C1613   1.551       .  S
C1541      C1545   1.539       .  S
C1541      C1547   1.548       .  S
C1541      C1546   1.543       .  S
C1541      C1627   1.548       .  S
C1542      C1550   1.378       .  A
C1542      C1545   1.400       .  A
C1543      C1554   1.375       .  A
C1543      C1546   1.395       .  A
C1544      C1558   1.388       .  A
C1544      C1547   1.401       .  A
C1545      C1548   1.380       .  A
C1546      C1552   1.382       .  A
C1547      C1555   1.382       .  A
C1548      N1549   1.356       .  A
C1548      H1561   1.083       .  S
N1549      C1550   1.355       .  A
N1549      C1602   1.432       .  S
C1550      H1551   1.079       .  S
C1552      N1553   1.357       .  A
C1552      H1562   1.082       .  S
N1553      C1554   1.355       .  A
N1553      C1669   1.433       .  S
C1554      H1560   1.083       .  S
C1555      N1556   1.357       .  A
C1555      H1557   1.082       .  S
N1556      C1558   1.356       .  A
C1558      H1559   1.081       .  S
O1563      C1579   1.269       .  A
O1563     Zn1569   1.976       .  S
C1564      O1580   1.276       .  A
O1565     Cd1572   2.076       .  S
O1566      C1584   1.266       .  A
O1566     Cd1575   2.015       .  S
O1567     Cd1571   2.062       .  S
O1568      C1579   1.267       .  A
O1568     Cd1571   2.018       .  S
Zn1569     O1580   2.044       .  S
Zn1569     O1582   2.040       .  S
Zn1569     O1574   1.946       .  S
O1570      C1581   1.272       .  A
O1570     Cd1575   2.066       .  S
Cd1571     O1573   2.056       .  S
Cd1571     O1574   1.991       .  S
Cd1572     O1576   2.083       .  S
Cd1572     O1585   2.039       .  S
Cd1575     O1577   2.045       .  S
O1576      C1583   1.276       .  A
C1578      O1582   1.276       .  A
C1579      C1604   1.427       .  S
C1584      O1585   1.270       .  A
C1584      C1601   1.427       .  S
O1586      C1602   1.274       .  A
O1586     Zn1592   2.030       .  S
C1587      O1603   1.273       .  A
C1587      O1600   1.273       .  A
O1588      C1601   1.268       .  A
O1588     Cd1595   2.017       .  S
O1589      C1607   1.273       .  A
O1589     Cd1598   2.067       .  S
O1590      C1604   1.269       .  A
O1590     Cd1594   2.028       .  S
O1591      C1602   1.276       .  A
O1591     Cd1594   2.073       .  S
Zn1592     O1603   2.023       .  S
Zn1592     O1605   1.976       .  S
Zn1592     O1597   1.947       .  S
O1593      C1604   1.268       .  A
O1593     Cd1598   2.025       .  S
Cd1594     O1596   2.086       .  S
Cd1594     O1597   1.991       .  S
Cd1595     O1599   2.070       .  S
Cd1595     O1608   2.069       .  S
Cd1595     O1597   1.991       .  S
O1596      C1606   1.275       .  A
O1597     Cd1598   1.990       .  S
Cd1598     O1600   2.068       .  S
O1599      C1606   1.273       .  A
C1601      O1605   1.269       .  A
C1607      O1608   1.272       .  A
C1609      C1610   1.409       .  A
C1609      C1614   1.407       .  A
C1609      H1616   1.080       .  S
C1610      C1611   1.419       .  A
C1611      C1612   1.410       .  A
C1611      N1618   1.437       .  S
C1612      C1613   1.409       .  A
C1612      H1617   1.078       .  S
C1613      C1614   1.427       .  A
C1614      N1615   1.439       .  S
N1615      H1619   1.045       .  S
N1615      H1620   1.040       .  S
N1618      H1621   1.044       .  S
N1618      H1622   1.046       .  S
C1623      C1624   1.411       .  A
C1623      C1628   1.411       .  A
C1623      H1630   1.081       .  S
C1624      C1625   1.427       .  A
C1625      C1626   1.407       .  A
C1625      N1632   1.438       .  S
C1626      C1627   1.408       .  A
C1626      H1631   1.080       .  S
C1627      C1628   1.417       .  A
C1628      N1629   1.438       .  S
N1629      H1633   1.045       .  S
N1629      H1634   1.045       .  S
N1632      H1635   1.041       .  S
N1632      H1636   1.044       .  S
C1637      C1638   1.410       .  A
C1637      C1642   1.410       .  A
C1637      H1644   1.081       .  S
C1638      C1639   1.418       .  A
C1639      C1640   1.409       .  A
C1639      N1646   1.432       .  S
C1640      C1641   1.408       .  A
C1640      H1645   1.081       .  S
C1641      C1642   1.418       .  A
C1642      N1643   1.438       .  S
N1643      H1647   1.046       .  S
N1643      H1648   1.045       .  S
N1646      H1649   1.045       .  S
N1646      H1650   1.046       .  S
C1651      C1652   1.409       .  A
C1651      C1656   1.411       .  A
C1651      H1658   1.080       .  S
C1652      C1653   1.429       .  A
C1653      C1654   1.408       .  A
C1653      N1660   1.437       .  S
C1654      C1655   1.406       .  A
C1654      H1659   1.083       .  S
C1655      C1656   1.419       .  A
C1656      N1657   1.437       .  S
N1657      H1661   1.045       .  S
N1657      H1662   1.046       .  S
N1660      H1663   1.039       .  S
N1660      H1664   1.044       .  S
C1665      C1666   1.402       .  A
C1665      C1670   1.403       .  A
C1665      H1672   1.084       .  S
C1667      N1674   1.439       .  S
C1668      C1669   1.399       .  A
C1668      H1673   1.084       .  S
C1669      C1670   1.416       .  A
C1670      N1671   1.438       .  S
N1671      H1675   1.046       .  S
N1671      H1676   1.043       .  S
N1674      H1677   1.042       .  S
N1674      H1678   1.046       .  S
C1679      C1680   1.402       .  A
C1679      C1684   1.405       .  A
C1679      H1686   1.083       .  S
C1681      N1688   1.439       .  S
C1682      H1687   1.084       .  S
C1683      C1684   1.408       .  A
C1684      N1685   1.437       .  S
N1685      H1689   1.046       .  S
N1685      H1690   1.046       .  S
N1688      H1691   1.042       .  S
N1688      H1692   1.046       .  S
C1693      C1694   1.412       .  A
C1693      C1698   1.411       .  A
C1693      H1700   1.081       .  S
C1694      C1695   1.430       .  A
C1695      C1696   1.406       .  A
C1695      N1702   1.439       .  S
C1696      C1697   1.406       .  A
C1696      H1701   1.081       .  S
C1697      C1698   1.415       .  A
C1698      N1699   1.432       .  S
N1699      H1703   1.045       .  S
N1699      H1704   1.046       .  S
N1702      H1705   1.038       .  S
N1702      H1706   1.046       .  S
C1707      C1708   1.407       .  A
C1707      C1712   1.408       .  A
C1707      H1714   1.081       .  S
C1708      C1709   1.417       .  A
C1709      C1710   1.409       .  A
C1709      N1716   1.438       .  S
C1710      C1711   1.410       .  A
C1710      H1715   1.080       .  S
C1711      C1712   1.429       .  A
C1712      N1713   1.439       .  S
N1713      H1717   1.046       .  S
N1713      H1718   1.039       .  S
N1716      H1719   1.045       .  S
N1716      H1720   1.045       .  S
C1721      C1722   1.402       .  A
C1721      C3502   1.401       .  A
C1721      H1728   1.083       .  S
C1722      C3499   1.415       .  A
C1723      C3498   1.414   1_455  A
C1723      C1724   1.401       .  A
C1723      N1730   1.432       .  S
C1724      C1725   1.401       .  A
C1724      H1729   1.084       .  S
C1725      C1726   1.410       .  A
C1726      C3497   1.401   1_455  A
C1726      N1727   1.431   1_455  S
N1727      H3507   1.046   1_655  S
N1727      H1732   1.045   1_655  S
N1730      H1733   1.045       .  S
N1730      H1734   1.046       .  S
H1731      N3503   1.046       .  S
C1735      C1740   1.396       .  A
C1735      H1742   1.084       .  S
C1736      C3513   1.410   1_554  A
C1736      N3122   1.432       .  S
C1737      C3512   1.411   1_556  A
C1737      C3514   1.401       .  A
C1737      N1744   1.432       .  S
C1738      C3513   1.400   1_455  A
C1738      C1739   1.402   1_556  A
C1738      H1743   1.083       .  S
C1740      N1741   1.431       .  S
N1741      H1745   1.043       .  S
N1741      H1746   1.046       .  S
N1744      H1747   1.046       .  S
N1744      H1748   1.045       .  S
C1749      C1750   1.408       .  A
C1749      C1754   1.411       .  A
C1749      H1756   1.083       .  S
C1750      C1751   1.419       .  A
C1751      C1752   1.408       .  A
C1751      N1758   1.438       .  S
C1752      C1753   1.408       .  A
C1752      H1757   1.081       .  S
C1753      C1754   1.428       .  A
C1754      N1755   1.437       .  S
N1755      H1759   1.045       .  S
N1755      H1760   1.041       .  S
N1758      H1761   1.046       .  S
N1758      H1762   1.046       .  S
C1763      C1764   1.406       .  A
C1763      C1768   1.407       .  A
C1763      H1770   1.083       .  S
C1764      C1765   1.417       .  A
C1765      C1766   1.409       .  A
C1765      N1772   1.437       .  S
C1766      C1767   1.410       .  A
C1766      H1771   1.080       .  S
C1767      C1768   1.429       .  A
C1768      N1769   1.439       .  S
N1769      H1773   1.046       .  S
N1769      H1774   1.039       .  S
N1772      H1775   1.046       .  S
N1772      H1776   1.045       .  S
C1777      C1779   1.529       .  S
C1777      C1781   1.543       .  S
C1777      C1780   1.541       .  S
C1777      C2194   1.545       .  S
C1778      C1782   1.529       .  S
C1778      C1784   1.549       .  S
C1778      C1783   1.545       .  S
C1778      C2211   1.551       .  S
C1779      C1787   1.377       .  A
C1779      C2226   1.387       .  A
C1780      C1791   1.378       .  A
C1780      C2227   1.400       .  A
C1781      C1795   1.382       .  A
C1781      C2228   1.418       .  A
C1782      C2223   1.388   1_554  A
C1782      C1785   1.375       .  A
C1783      C2224   1.400   1_554  A
C1783      C1789   1.376       .  A
C1784      C2225   1.417   1_554  A
C1784      C1792   1.387       .  A
C1785      N1786   1.356   1_554  A
C1785      H1798   1.083       .  S
N1786      C2231   1.357       .  A
N1786      C1887   1.428       .  S
C1787      N2230   1.357       .  A
C1787      H1788   1.083       .  S
C1789      N2234   1.358   1_554  A
C1789      H1799   1.081       .  S
N1790      C2233   1.357       .  A
N1790      C1791   1.358       .  A
C1791      H1797   1.082       .  S
C1792      N1793   1.349   1_554  A
C1792      H1794   1.082       .  S
N1793      C2239   1.348       .  A
N1793      C2025   1.429       .  S
C1795      N2237   1.346       .  A
C1795      H1796   1.083       .  S
C1800      C1802   1.534       .  S
C1800      C1804   1.545       .  S
C1800      C1803   1.547       .  S
C1800      C2208   1.546       .  S
C1801      C1805   1.533       .  S
C1801      C1807   1.554       .  S
C1801      C1806   1.546       .  S
C1801      C2197   1.551       .  S
C1802      C1810   1.380       .  A
C1802      C1805   1.390       .  A
C1803      C1814   1.382       .  A
C1803      C1806   1.400       .  A
C1804      C1818   1.384       .  A
C1804      C1807   1.410       .  A
C1805      C1808   1.379       .  A
C1806      C1812   1.381       .  A
C1807      C1815   1.387       .  A
C1808      N1809   1.358       .  A
C1808      H1821   1.083       .  S
N1809      C1810   1.358       .  A
N1809      C1913   1.434       .  S
C1810      H1811   1.082       .  S
C1812      N1813   1.358       .  A
C1812      H1822   1.081       .  S
N1813      C1814   1.357       .  A
N1813      C2166   1.440       .  S
C1814      H1820   1.082       .  S
C1815      N1816   1.352       .  A
C1815      H1817   1.082       .  S
N1816      C1818   1.351       .  A
N1816      C2050   1.432       .  S
C1818      H1819   1.083       .  S
C1823      C1825   1.540       .  S
C1823      C1827   1.534       .  S
C1823      C1826   1.548       .  S
C1823      C2141   1.545       .  S
C1824      C1828   1.542       .  S
C1824      C1830   1.537       .  S
C1824      C1829   1.541       .  S
C1824      C2152   1.549       .  S
C1825      C1833   1.381       .  A
C1825      C2272   1.403       .  A
C1826      C1837   1.380       .  A
C1826      C2273   1.400       .  A
C1827      C1841   1.378       .  A
C1827      C2274   1.403       .  A
C1828      C2269   1.395   1_554  A
C1828      C1831   1.381       .  A
C1829      C2270   1.403   1_554  A
C1829      C1835   1.379       .  A
C1830      C2271   1.412   1_554  A
C1830      C1838   1.382       .  A
C1831      N2276   1.357   1_554  A
C1831      H1844   1.082       .  S
N1832      C2275   1.353       .  A
N1832      C1833   1.352       .  A
N1832      C1885   1.430       .  S
C1833      H1834   1.082       .  S
C1835      N2280   1.353   1_554  A
C1835      H1845   1.082       .  S
N1836      C2279   1.355       .  A
N1836      C1837   1.355       .  A
N1836      C3012   1.433       .  S
C1837      H1843   1.082       .  S
C1838      N2283   1.351   1_554  A
C1838      H1840   1.083       .  S
N1839      C2282   1.352       .  A
N1839      C1841   1.353       .  A
N1839      C2471   1.428       .  S
C1841      H1842   1.083       .  S
C1846      C1848   1.552       .  S
C1846      C1850   1.530       .  S
C1846      C1849   1.541       .  S
C1846      C2155   1.552       .  S
C1847      C1851   1.555       .  S
C1847      C1853   1.527       .  S
C1847      C1852   1.542       .  S
C1847      C2138   1.550       .  S
C1848      C1856   1.388       .  A
C1848      C1851   1.424       .  A
C1849      C1860   1.378       .  A
C1849      C1852   1.398       .  A
C1850      C1864   1.378       .  A
C1850      C1853   1.385       .  A
C1851      C1854   1.388       .  A
C1852      C1858   1.376       .  A
C1853      C1861   1.376       .  A
C1854      N1855   1.350       .  A
C1854      H1867   1.082       .  S
N1855      C1856   1.349       .  A
N1855      C1907   1.435       .  S
C1856      H1857   1.082       .  S
C1858      N1859   1.357       .  A
C1858      H1868   1.082       .  S
N1859      C1860   1.356       .  A
N1859      C2998   1.435       .  S
C1860      H1866   1.082       .  S
C1861      N1862   1.354       .  A
C1861      H1863   1.083       .  S
N1862      C1864   1.356       .  A
N1862      C2051   1.427       .  S
C1864      H1865   1.083       .  S
O1869      C1885   1.275       .  A
C1870      O2774   1.271       .  A
C1870      O1883   1.269       .  A
C1870      C1893   1.440       .  S
O1871      C2328   1.276   1_554  A
O1871     Cd2766   2.080       .  S
O1872      C1890   1.274       .  A
O1872     Cd1881   2.074       .  S
O1873      C1887   1.273   1_554  A
O1873     Cd1877   2.068       .  S
O1874      C2329   1.272   1_554  A
O1874     Cd2765   2.061       .  S
Zn1875     O1886   1.982       .  S
Zn1875     O1888   2.043       .  S
Zn1875     O2768   1.939       .  S
O1876     Cd1881   2.064       .  S
Cd1877     O2762   2.068   1_545  S
Cd1877     O1879   2.025       .  S
Cd1878     O2759   2.083   1_545  S
Cd1878     O1882   2.036       .  S
Cd1878     O1891   2.091       .  S
Cd1878     O2324   1.993   1_554  S
O1880     Zn2763   1.942   1_545  S
O1880     Cd2322   1.992       .  S
O1880     Cd1881   1.991       .  S
Cd1881     O1883   2.015       .  S
O1882      C1889   1.272       .  A
C1884      N1924   1.437       .  S
C1884      O2315   1.276       .  A
C1884      O1888   1.276       .  A
C1885      O2318   1.273       .  A
O1886      C2758   1.271       .  A
C1889      C1912   1.442       .  S
C1890      N1977   1.436       .  S
C1890      O2335   1.277       .  A
O1891      C2334   1.277   1_554  A
O1892      C1908   1.274       .  A
O1892     Zn1898   2.029       .  S
C1893      O2797   1.270       .  A
C1893      O1906   1.271       .  A
O1894      C1907   1.276       .  A
O1894     Cd2789   2.087       .  S
O1895     Cd1904   2.077       .  S
O1896      C1910   1.272       .  A
O1896     Cd1900   2.069       .  S
O1897      C1908   1.271       .  A
O1897     Cd2788   2.052       .  S
Zn1898     O1909   1.971       .  S
Zn1898     O2791   1.943       .  S
O1899      C1910   1.277       .  A
O1899     Cd1904   2.098       .  S
Cd1900     O2785   2.056   1_545  S
Cd1900     O1902   2.016       .  S
Cd1900     O1903   1.988       .  S
Cd1901     O2782   2.093   1_545  S
Cd1901     O1905   2.043       .  S
Cd1901     O1914   2.090       .  S
O1902      C1912   1.268       .  A
O1903     Zn2786   1.944   1_545  S
O1903     Cd1904   1.995       .  S
Cd1904     O1906   2.027       .  S
C1907      O1911   1.273       .  A
C1908      N1947   1.428       .  S
O1909      C2781   1.270       .  A
C1910      N2000   1.437       .  S
C1913      O1914   1.277       .  A
C1915      C1917   1.544       .  S
C1915      C1919   1.547       .  S
C1915      C1918   1.539       .  S
C1915      C2082   1.547       .  S
C1916      C1920   1.549       .  S
C1916      C1922   1.536       .  S
C1916      C1921   1.547       .  S
C1916      C2096   1.552       .  S
C1917      C1925   1.385       .  A
C1917      C2364   1.407       .  A
C1918      C1929   1.377       .  A
C1918      C2365   1.400       .  A
C1919      C1933   1.387       .  A
C1919      C2366   1.394       .  A
C1920      C2361   1.410   1_554  A
C1920      C1923   1.386       .  A
C1921      C2362   1.398   1_554  A
C1921      C1927   1.381       .  A
C1922      C2363   1.393   1_554  A
C1922      C1930   1.379       .  A
C1923      N2368   1.353   1_554  A
C1923      H1936   1.082       .  S
N1924      C2367   1.355       .  A
N1924      C1925   1.355       .  A
C1925      H1926   1.082       .  S
C1927      N2372   1.358       .  A
C1927      H1937   1.081       .  S
N1928      C2371   1.357       .  A
N1928      C1929   1.353       .  A
N1928      C2183   1.433       .  S
C1929      H1935   1.081       .  S
C1930      N2375   1.356   1_554  A
C1930      H1932   1.083       .  S
N1931      C2374   1.355       .  A
N1931      C1933   1.358       .  A
N1931      C2022   1.436       .  S
C1933      H1934   1.082       .  S
C1938      C1940   1.545       .  S
C1938      C1942   1.532       .  S
C1938      C1941   1.547       .  S
C1938      C2099   1.548       .  S
C1939      C1943   1.533       .  S
C1939      C1945   1.538       .  S
C1939      C1944   1.547       .  S
C1939      C2085   1.546       .  S
C1940      C1948   1.381       .  A
C1940      C1943   1.407       .  A
C1941      C1952   1.381       .  A
C1941      C1944   1.401       .  A
C1942      C1956   1.378       .  A
C1942      C1945   1.396       .  A
C1943      C1946   1.381       .  A
C1944      C1950   1.380       .  A
C1945      C1953   1.377       .  A
C1946      N1947   1.351       .  A
C1946      H1959   1.083       .  S
N1947      C1948   1.352       .  A
C1948      H1949   1.082       .  S
C1950      N1951   1.358       .  A
C1950      H1960   1.082       .  S
N1951      C1952   1.358       .  A
N1951      C2169   1.439       .  S
C1952      H1958   1.081       .  S
C1953      N1954   1.353       .  A
C1953      H1955   1.082       .  S
N1954      C1956   1.354       .  A
N1954      C2031   1.426       .  S
C1956      H1957   1.082       .  S
C1961      C1963   1.536       .  S
C1961      C1965   1.547       .  S
C1961      C1964   1.533       .  S
C1961      C2068   1.548       .  S
C1962      C1966   1.548       .  S
C1962      C1968   1.556       .  S
C1962      C1967   1.538       .  S
C1962      C2054   1.547       .  S
C1963      C1971   1.374       .  A
C1963      C2410   1.396   1_554  A
C1964      C1975   1.377       .  A
C1964      C2411   1.393   1_554  A
C1965      C1979   1.384       .  A
C1965      C2412   1.406   1_554  A
C1966      C2407   1.396       .  A
C1966      C1969   1.387       .  A
C1967      C2408   1.393       .  A
C1967      C1973   1.377       .  A
C1968      C2409   1.405       .  A
C1968      C1976   1.385       .  A
C1969      N1970   1.357       .  A
C1969      H1982   1.081       .  S
N1970      C2415   1.356       .  A
N1970      C2008   1.432       .  S
C1971      N2414   1.355   1_554  A
C1971      H1972   1.083       .  S
C1973      N1974   1.356       .  A
C1973      H1983   1.083       .  S
N1974      C2419   1.356       .  A
N1974      C2127   1.433       .  S
C1975      N2418   1.356   1_554  A
C1975      H1981   1.082       .  S
C1976      N1977   1.357       .  A
C1976      H1978   1.081       .  S
N1977      C2423   1.355       .  A
C1979      N2421   1.355       .  A
C1979      H1980   1.082       .  S
C1984      C1986   1.544       .  S
C1984      C1988   1.554       .  S
C1984      C1987   1.534       .  S
C1984      C2057   1.550       .  S
C1985      C1989   1.539       .  S
C1985      C1991   1.547       .  S
C1985      C1990   1.543       .  S
C1985      C2071   1.547       .  S
C1986      C1994   1.378       .  A
C1986      C1989   1.400       .  A
C1987      C1998   1.375       .  A
C1987      C1990   1.394       .  A
C1988      C2002   1.387       .  A
C1988      C1991   1.401       .  A
C1989      C1992   1.380       .  A
C1990      C1996   1.382       .  A
C1991      C1999   1.382       .  A
C1992      N1993   1.357       .  A
C1992      H2005   1.083       .  S
N1993      C1994   1.356       .  A
N1993      C2046   1.432       .  S
C1994      H1995   1.079       .  S
C1996      N1997   1.357       .  A
C1996      H2006   1.082       .  S
N1997      C1998   1.354       .  A
N1997      C2113   1.433       .  S
C1998      H2004   1.083       .  S
C1999      N2000   1.357       .  A
C1999      H2001   1.082       .  S
N2000      C2002   1.356       .  A
C2002      H2003   1.081       .  S
O2007      C2023   1.269       .  A
O2007     Zn2013   1.979       .  S
C2008      O2024   1.277       .  A
C2008      O2465   1.272       .  A
O2009      C2466   1.276   1_554  A
O2009     Cd2016   2.080       .  S
O2010      C2028   1.267       .  A
O2010     Cd2019   2.018       .  S
O2011      C2469   1.273       .  A
O2011     Cd2015   2.065       .  S
O2012      C2023   1.268       .  A
O2012     Cd2015   2.021       .  S
Zn2013     O2024   2.048       .  S
Zn2013     O2026   2.041       .  S
Zn2013     O2018   1.945       .  S
O2014      C2025   1.273   1_554  A
O2014     Cd2019   2.068       .  S
Cd2015     O2017   2.053       .  S
Cd2015     O2018   1.990       .  S
Cd2016     O2020   2.085       .  S
Cd2016     O2029   2.041       .  S
Cd2016     O2462   1.994   1_554  S
O2017      C2471   1.272       .  A
O2018     Cd2460   1.992       .  S
O2018     Cd2463   1.983       .  S
Cd2019     O2021   2.053       .  S
Cd2019     O2462   1.987   1_554  S
O2020      C2027   1.277   1_554  A
O2021      C2452   1.272   1_554  A
C2022      O2453   1.275       .  A
C2022      O2026   1.277       .  A
C2023      C2048   1.429       .  S
C2025      O2455   1.272       .  A
C2027      N2283   1.432       .  S
C2027      O2461   1.273       .  A
C2028      O2029   1.270       .  A
C2028      C2045   1.429       .  S
O2030      C2046   1.274       .  A
O2030     Zn2036   2.033       .  S
C2031      O2047   1.273       .  A
C2031      O2044   1.272       .  A
O2032      C2045   1.267       .  A
O2032     Cd2039   2.016       .  S
O2033      C2051   1.273       .  A
O2033     Cd2042   2.066       .  S
O2034      C2048   1.268       .  A
O2034     Cd2038   2.030       .  S
O2035      C2046   1.275       .  A
O2035     Cd2038   2.068       .  S
Zn2036     O2047   2.020       .  S
Zn2036     O2049   1.980       .  S
Zn2036     O2041   1.946       .  S
O2037      C2048   1.268       .  A
O2037     Cd2042   2.025       .  S
Cd2038     O2040   2.080       .  S
Cd2038     O2041   1.986       .  S
Cd2039     O2043   2.066       .  S
Cd2039     O2052   2.060       .  S
Cd2039     O2041   1.989       .  S
O2040      C2050   1.275       .  A
O2041     Cd2042   1.987       .  S
Cd2042     O2044   2.057       .  S
O2043      C2050   1.273       .  A
C2045      O2049   1.270       .  A
C2051      O2052   1.271       .  A
C2053      C2054   1.409       .  A
C2053      C2058   1.407       .  A
C2053      H2060   1.080       .  S
C2054      C2055   1.418       .  A
C2055      C2056   1.410       .  A
C2055      N2062   1.437       .  S
C2056      C2057   1.409       .  A
C2056      H2061   1.078       .  S
C2057      C2058   1.427       .  A
C2058      N2059   1.439       .  S
N2059      H2063   1.045       .  S
N2059      H2064   1.040       .  S
N2062      H2065   1.044       .  S
N2062      H2066   1.046       .  S
C2067      C2068   1.411       .  A
C2067      C2072   1.411       .  A
C2067      H2074   1.081       .  S
C2068      C2069   1.427       .  A
C2069      C2070   1.407       .  A
C2069      N2076   1.438       .  S
C2070      C2071   1.408       .  A
C2070      H2075   1.080       .  S
C2071      C2072   1.417       .  A
C2072      N2073   1.438       .  S
N2073      H2077   1.045       .  S
N2073      H2078   1.045       .  S
N2076      H2079   1.041       .  S
N2076      H2080   1.044       .  S
C2081      C2082   1.409       .  A
C2081      C2086   1.410       .  A
C2081      H2088   1.081       .  S
C2082      C2083   1.418       .  A
C2083      C2084   1.410       .  A
C2083      N2090   1.432       .  S
C2084      C2085   1.408       .  A
C2084      H2089   1.082       .  S
C2085      C2086   1.420       .  A
C2086      N2087   1.438       .  S
N2087      H2091   1.046       .  S
N2087      H2092   1.045       .  S
N2090      H2093   1.046       .  S
N2090      H2094   1.046       .  S
C2095      C2096   1.410       .  A
C2095      C2100   1.412       .  A
C2095      H2102   1.080       .  S
C2096      C2097   1.428       .  A
C2097      C2098   1.407       .  A
C2097      N2104   1.437       .  S
C2098      C2099   1.405       .  A
C2098      H2103   1.083       .  S
C2099      C2100   1.419       .  A
C2100      N2101   1.437       .  S
N2101      H2105   1.046       .  S
N2101      H2106   1.046       .  S
N2104      H2107   1.041       .  S
N2104      H2108   1.041       .  S
C2109      C2110   1.401       .  A
C2109      C2114   1.403       .  A
C2109      H2116   1.084       .  S
C2110      C2999   1.416   1_545  A
C2110      N2747   1.433   1_545  S
C2111      C2998   1.417       .  A
C2111      C3000   1.399       .  A
C2111      N2118   1.439       .  S
C2112      C2999   1.398   1_545  A
C2112      C2113   1.399       .  A
C2112      H2117   1.084       .  S
C2113      C2114   1.416       .  A
C2114      N2115   1.438       .  S
N2115      H2119   1.046       .  S
N2115      H2120   1.043       .  S
N2118      H2121   1.041       .  S
N2118      H2122   1.046       .  S
C2123      C2124   1.403   1_545  A
C2123      C2128   1.406       .  A
C2123      H2130   1.083       .  S
C2124      C3457   1.416       .  A
C2124      N2724   1.434       .  S
C2125      C3456   1.417   1_554  A
C2125      C3014   1.400       .  A
C2125      N2132   1.439       .  S
C2126      C3013   1.400   1_545  A
C2126      C2571   1.400   1_554  A
C2126      H2131   1.084       .  S
C2127      C2570   1.399       .  A
C2127      C2128   1.408       .  A
C2128      N2129   1.437       .  S
N2129      H2133   1.046       .  S
N2129      H2134   1.046       .  S
N2132      H2135   1.042       .  S
N2132      H2136   1.046       .  S
C2137      C2138   1.411       .  A
C2137      C2142   1.409       .  A
C2137      H2144   1.081       .  S
C2138      C2139   1.430       .  A
C2139      C2140   1.406       .  A
C2139      N2146   1.439       .  S
C2140      C2141   1.406       .  A
C2140      H2145   1.082       .  S
C2141      C2142   1.413       .  A
C2142      N2143   1.432       .  S
N2143      H2147   1.045       .  S
N2143      H2148   1.046       .  S
N2146      H2149   1.038       .  S
N2146      H2150   1.046       .  S
C2151      C2152   1.408       .  A
C2151      C2156   1.408       .  A
C2151      H2158   1.081       .  S
C2152      C2153   1.416       .  A
C2153      C2154   1.411       .  A
C2153      N2160   1.438       .  S
C2154      C2155   1.411       .  A
C2154      H2159   1.080       .  S
C2155      C2156   1.429       .  A
C2156      N2157   1.439       .  S
N2157      H2161   1.046       .  S
N2157      H2162   1.039       .  S
N2160      H2163   1.045       .  S
N2160      H2164   1.045       .  S
C2165      C2166   1.402       .  A
C2165      H2172   1.083       .  S
C2167      C2168   1.400       .  A
C2167      N2174   1.431       .  S
C2168      C2169   1.402       .  A
C2168      H2173   1.084       .  S
C2169      C2170   1.414       .  A
C2170      N2171   1.431       .  S
N2171      H2176   1.046       .  S
N2174      H2177   1.045       .  S
N2174      H2178   1.042       .  S
C2179      C2624   1.401   1_554  A
C2179      C2184   1.396       .  A
C2179      H2186   1.084       .  S
C2180      C2623   1.401       .  A
C2181      N2188   1.432       .  S
C2182      C2183   1.403       .  A
C2182      H2187   1.083       .  S
C2183      C2628   1.410       .  A
C2184      C2627   1.412       .  A
C2184      N2185   1.429       .  S
N2185      H2189   1.042       .  S
N2185      H2190   1.045       .  S
N2188      H2191   1.046       .  S
N2188      H2192   1.044       .  S
C2193      C2194   1.405       .  A
C2193      C2198   1.408       .  A
C2193      H2200   1.083       .  S
C2194      C2195   1.420       .  A
C2195      C2196   1.408       .  A
C2195      N2202   1.438       .  S
C2196      C2197   1.409       .  A
C2196      H2201   1.080       .  S
C2197      C2198   1.428       .  A
C2198      N2199   1.436       .  S
N2199      H2203   1.043       .  S
N2199      H2204   1.040       .  S
N2202      H2205   1.045       .  S
N2202      H2206   1.046       .  S
C2207      C2208   1.408       .  A
C2207      C2212   1.409       .  A
C2207      H2214   1.082       .  S
C2208      C2209   1.418       .  A
C2209      C2210   1.409       .  A
C2209      N2216   1.437       .  S
C2210      C2211   1.410       .  A
C2210      H2215   1.080       .  S
C2211      C2212   1.428       .  A
C2212      N2213   1.438       .  S
N2213      H2217   1.046       .  S
N2213      H2218   1.039       .  S
N2216      H2219   1.045       .  S
N2216      H2220   1.046       .  S
C2221      C2223   1.529       .  S
C2221      C2225   1.544       .  S
C2221      C2224   1.544       .  S
C2221      C2638   1.548       .  S
C2222      C2226   1.528       .  S
C2222      C2228   1.549       .  S
C2222      C2227   1.545       .  S
C2222      C2655   1.548       .  S
C2223      C2231   1.377       .  A
C2224      C2235   1.379       .  A
C2225      C2239   1.382       .  A
C2226      C2229   1.375       .  A
C2227      C2233   1.375       .  A
C2228      C2236   1.386       .  A
C2229      N2230   1.355       .  A
C2229      H2242   1.083       .  S
N2230      C2331   1.429       .  S
C2231      H2232   1.083       .  S
C2233      H2243   1.081       .  S
N2234      C2235   1.359       .  A
C2235      H2241   1.081       .  S
C2236      N2237   1.349       .  A
C2236      H2238   1.082       .  S
N2237      C2469   1.427       .  S
C2239      H2240   1.083       .  S
C2244      C2246   1.533       .  S
C2244      C2248   1.543       .  S
C2244      C2247   1.548       .  S
C2244      C2652   1.545       .  S
C2245      C2249   1.534       .  S
C2245      C2251   1.556       .  S
C2245      C2250   1.547       .  S
C2245      C2641   1.553       .  S
C2246      C2254   1.380       .  A
C2246      C2249   1.389       .  A
C2247      C2258   1.383       .  A
C2247      C2250   1.400       .  A
C2248      C2262   1.384       .  A
C2248      C2251   1.411       .  A
C2249      C2252   1.379       .  A
C2250      C2256   1.380       .  A
C2251      C2259   1.389       .  A
C2252      N2253   1.358       .  A
C2252      H2265   1.082       .  S
N2253      C2254   1.358       .  A
N2253      C2357   1.435       .  S
C2254      H2255   1.083       .  S
C2256      N2257   1.357       .  A
C2256      H2266   1.081       .  S
N2257      C2258   1.357       .  A
N2257      C2610   1.439       .  S
C2258      H2264   1.082       .  S
C2259      N2260   1.353       .  A
C2259      H2261   1.082       .  S
N2260      C2262   1.350       .  A
N2260      C2494   1.434       .  S
C2262      H2263   1.083       .  S
C2267      C2269   1.539       .  S
C2267      C2271   1.539       .  S
C2267      C2270   1.550       .  S
C2267      C2585   1.549       .  S
C2268      C2272   1.542       .  S
C2268      C2274   1.533       .  S
C2268      C2273   1.538       .  S
C2268      C2596   1.543       .  S
C2269      C2277   1.380       .  A
C2270      C2281   1.383       .  A
C2271      C2285   1.382       .  A
C2272      C2275   1.382       .  A
C2273      C2279   1.377       .  A
C2274      C2282   1.380       .  A
C2275      H2288   1.083       .  S
N2276      C2277   1.354       .  A
N2276      C2329   1.432       .  S
C2277      H2278   1.082       .  S
C2279      H2289   1.082       .  S
N2280      C2281   1.354       .  A
N2280      C3456   1.434       .  S
C2281      H2287   1.082       .  S
C2282      H2284   1.083       .  S
N2283      C2285   1.352       .  A
C2285      H2286   1.083       .  S
C2290      C2292   1.551       .  S
C2290      C2294   1.530       .  S
C2290      C2293   1.539       .  S
C2290      C2599   1.547       .  S
C2291      C2295   1.556       .  S
C2291      C2297   1.530       .  S
C2291      C2296   1.542       .  S
C2291      C2582   1.551       .  S
C2292      C2300   1.389       .  A
C2292      C2295   1.423       .  A
C2293      C2304   1.376       .  A
C2293      C2296   1.397       .  A
C2294      C2308   1.379       .  A
C2294      C2297   1.385       .  A
C2295      C2298   1.389       .  A
C2296      C2302   1.376       .  A
C2297      C2305   1.378       .  A
C2298      N2299   1.351       .  A
C2298      H2311   1.082       .  S
N2299      C2300   1.348       .  A
N2299      C2351   1.435       .  S
C2300      H2301   1.082       .  S
C2302      N2303   1.357       .  A
C2302      H2312   1.081       .  S
N2303      C2304   1.355       .  A
N2303      C3442   1.432       .  S
C2304      H2310   1.081       .  S
C2305      N2306   1.355       .  A
C2305      H2307   1.082       .  S
N2306      C2308   1.356       .  A
N2306      C2495   1.430       .  S
C2308      H2309   1.083       .  S
O2313      C2329   1.277       .  A
C2314      O3218   1.272       .  A
C2314      O2327   1.268       .  A
C2314      C2337   1.443       .  S
O2315     Cd3210   2.080       .  S
O2316      C2334   1.273       .  A
O2316     Cd2325   2.070       .  S
O2317      C2331   1.274       .  A
O2317     Cd2321   2.073       .  S
O2318     Cd3209   2.068       .  S
Zn2319     O2330   1.982       .  S
Zn2319     O2332   2.043       .  S
Zn2319     O3212   1.945       .  S
O2320     Cd2325   2.060       .  S
Cd2321     O3206   2.066       .  S
Cd2321     O2323   2.025       .  S
Cd2322     O3203   2.083   1_545  S
Cd2322     O2326   2.027       .  S
Cd2322     O2335   2.091       .  S
O2324     Zn3207   1.946   1_545  S
O2324     Cd2325   1.991       .  S
Cd2325     O2327   2.016       .  S
O2326      C2333   1.271       .  A
C2328      N2368   1.437       .  S
C2328      O2332   1.276       .  A
O2330      C3202   1.271       .  A
C2333      C2356   1.439       .  S
C2334      N2421   1.436   1_556  S
O2336      C2352   1.273       .  A
O2336     Zn2342   2.026       .  S
C2337      O3241   1.270       .  A
C2337      O2350   1.272       .  A
O2338      C2351   1.276       .  A
O2338     Cd3233   2.091       .  S
O2339     Cd2348   2.076       .  S
O2340      C2354   1.272       .  A
O2340     Cd2344   2.062       .  S
O2341      C2352   1.272       .  A
O2341     Cd3232   2.056       .  S
Zn2342     O2353   1.969       .  S
Zn2342     O3235   1.942       .  S
O2343      C2354   1.276       .  A
O2343     Cd2348   2.091       .  S
Cd2344     O3229   2.055   1_545  S
Cd2344     O2346   2.012       .  S
Cd2344     O2347   1.986       .  S
Cd2345     O3226   2.088   1_545  S
Cd2345     O2349   2.036       .  S
Cd2345     O2358   2.089       .  S
O2346      C2356   1.268       .  A
O2347     Zn3230   1.942   1_545  S
O2347     Cd2348   1.990       .  S
Cd2348     O2350   2.029       .  S
C2351      O2355   1.273       .  A
C2352      N2391   1.429       .  S
O2353      C3225   1.270       .  A
C2354      N2444   1.434       .  S
C2357      O2358   1.277       .  A
C2359      C2361   1.545       .  S
C2359      C2363   1.549       .  S
C2359      C2362   1.543       .  S
C2359      C2526   1.548       .  S
C2360      C2364   1.549       .  S
C2360      C2366   1.536       .  S
C2360      C2365   1.548       .  S
C2360      C2540   1.552       .  S
C2361      C2369   1.386       .  A
C2362      C2373   1.379       .  A
C2363      C2377   1.388       .  A
C2364      C2367   1.386       .  A
C2365      C2371   1.380       .  A
C2366      C2374   1.379       .  A
C2367      H2380   1.082       .  S
N2368      C2369   1.354       .  A
C2369      H2370   1.082       .  S
C2371      H2381   1.081       .  S
N2372      C2373   1.356   1_554  A
N2372      C2627   1.438       .  S
C2373      H2379   1.081       .  S
C2374      H2376   1.083       .  S
N2375      C2377   1.359       .  A
N2375      C2466   1.437       .  S
C2377      H2378   1.082       .  S
C2382      C2384   1.547       .  S
C2382      C2386   1.533       .  S
C2382      C2385   1.546       .  S
C2382      C2543   1.548       .  S
C2383      C2387   1.535       .  S
C2383      C2389   1.538       .  S
C2383      C2388   1.548       .  S
C2383      C2529   1.547       .  S
C2384      C2392   1.383       .  A
C2384      C2387   1.411       .  A
C2385      C2396   1.381       .  A
C2385      C2388   1.401       .  A
C2386      C2400   1.380       .  A
C2386      C2389   1.393       .  A
C2387      C2390   1.382       .  A
C2388      C2394   1.381       .  A
C2389      C2397   1.378       .  A
C2390      N2391   1.351       .  A
C2390      H2403   1.083       .  S
N2391      C2392   1.350       .  A
C2392      H2393   1.082       .  S
C2394      N2395   1.358       .  A
C2394      H2404   1.082       .  S
N2395      C2396   1.357       .  A
N2395      C2613   1.439       .  S
C2396      H2402   1.081       .  S
C2397      N2398   1.353       .  A
C2397      H2399   1.082       .  S
N2398      C2400   1.356       .  A
N2398      C2475   1.429       .  S
C2400      H2401   1.082       .  S
C2405      C2407   1.536       .  S
C2405      C2409   1.546       .  S
C2405      C2408   1.534       .  S
C2405      C2512   1.548       .  S
C2406      C2410   1.549       .  S
C2406      C2412   1.557       .  S
C2406      C2411   1.539       .  S
C2406      C2498   1.550       .  S
C2407      C2415   1.374       .  A
C2408      C2419   1.377       .  A
C2409      C2423   1.383       .  A
C2410      C2413   1.388       .  A
C2411      C2417   1.377       .  A
C2412      C2420   1.384       .  A
C2413      N2414   1.358       .  A
C2413      H2426   1.081       .  S
N2414      C2452   1.433       .  S
C2415      H2416   1.083       .  S
C2417      N2418   1.357       .  A
C2417      H2427   1.083       .  S
N2418      C2571   1.434       .  S
C2419      H2425   1.081       .  S
C2420      N2421   1.356   1_556  A
C2420      H2422   1.081       .  S
C2423      H2424   1.082       .  S
C2428      C2430   1.544       .  S
C2428      C2432   1.554       .  S
C2428      C2431   1.536       .  S
C2428      C2501   1.551       .  S
C2429      C2433   1.537       .  S
C2429      C2435   1.546       .  S
C2429      C2434   1.545       .  S
C2429      C2515   1.546       .  S
C2430      C2438   1.378       .  A
C2430      C2433   1.398       .  A
C2431      C2442   1.376       .  A
C2431      C2434   1.395       .  A
C2432      C2446   1.387       .  A
C2432      C2435   1.401       .  A
C2433      C2436   1.379       .  A
C2434      C2440   1.384       .  A
C2435      C2443   1.380       .  A
C2436      N2437   1.356       .  A
C2436      H2449   1.083       .  S
N2437      C2438   1.356       .  A
N2437      C2490   1.431       .  S
C2438      H2439   1.079       .  S
C2440      N2441   1.358       .  A
C2440      H2450   1.082       .  S
N2441      C2442   1.355       .  A
N2441      C2557   1.436       .  S
C2442      H2448   1.082       .  S
C2443      N2444   1.356       .  A
C2443      H2445   1.082       .  S
N2444      C2446   1.356       .  A
C2446      H2447   1.081       .  S
O2451      C2467   1.269       .  A
O2451     Zn2457   1.979       .  S
C2452      O2468   1.277       .  A
O2453     Cd2460   2.076       .  S
O2454      C2472   1.266       .  A
O2454     Cd2463   2.013       .  S
O2455     Cd2459   2.065       .  S
O2456      C2467   1.268       .  A
O2456     Cd2459   2.024       .  S
Zn2457     O2468   2.047       .  S
Zn2457     O2470   2.044       .  S
Zn2457     O2462   1.948       .  S
O2458      C2469   1.271       .  A
O2458     Cd2463   2.059       .  S
Cd2459     O2461   2.063       .  S
Cd2459     O2462   1.992       .  S
Cd2460     O2464   2.081       .  S
Cd2460     O2473   2.039       .  S
Cd2463     O2465   2.049       .  S
O2464      C2471   1.276       .  A
C2466      O2470   1.277       .  A
C2467      C2492   1.430       .  S
C2472      O2473   1.270       .  A
C2472      C2489   1.427       .  S
O2474      C2490   1.274       .  A
O2474     Zn2480   2.033       .  S
C2475      O2491   1.273       .  A
C2475      O2488   1.274       .  A
O2476      C2489   1.268       .  A
O2476     Cd2483   2.018       .  S
O2477      C2495   1.274       .  A
O2477     Cd2486   2.073       .  S
O2478      C2492   1.269       .  A
O2478     Cd2482   2.030       .  S
O2479      C2490   1.275       .  A
O2479     Cd2482   2.068       .  S
Zn2480     O2491   2.021       .  S
Zn2480     O2493   1.975       .  S
Zn2480     O2485   1.949       .  S
O2481      C2492   1.269       .  A
O2481     Cd2486   2.029       .  S
Cd2482     O2484   2.083       .  S
Cd2482     O2485   1.989       .  S
Cd2483     O2487   2.073       .  S
Cd2483     O2496   2.067       .  S
Cd2483     O2485   1.992       .  S
O2484      C2494   1.275       .  A
O2485     Cd2486   1.990       .  S
Cd2486     O2488   2.068       .  S
O2487      C2494   1.274       .  A
C2489      O2493   1.269       .  A
C2495      O2496   1.272       .  A
C2497      C2498   1.409       .  A
C2497      C2502   1.407       .  A
C2497      H2504   1.080       .  S
C2498      C2499   1.420       .  A
C2499      C2500   1.411       .  A
C2499      N2506   1.437       .  S
C2500      C2501   1.409       .  A
C2500      H2505   1.078       .  S
C2501      C2502   1.427       .  A
C2502      N2503   1.439       .  S
N2503      H2507   1.045       .  S
N2503      H2508   1.040       .  S
N2506      H2509   1.044       .  S
N2506      H2510   1.046       .  S
C2511      C2512   1.410       .  A
C2511      C2516   1.411       .  A
C2511      H2518   1.081       .  S
C2512      C2513   1.427       .  A
C2513      C2514   1.407       .  A
C2513      N2520   1.438       .  S
C2514      C2515   1.407       .  A
C2514      H2519   1.080       .  S
C2515      C2516   1.418       .  A
C2516      N2517   1.438       .  S
N2517      H2521   1.045       .  S
N2517      H2522   1.045       .  S
N2520      H2523   1.041       .  S
N2520      H2524   1.044       .  S
C2525      C2526   1.409       .  A
C2525      C2530   1.411       .  A
C2525      H2532   1.081       .  S
C2526      C2527   1.419       .  A
C2527      C2528   1.410       .  A
C2527      N2534   1.432       .  S
C2528      C2529   1.407       .  A
C2528      H2533   1.081       .  S
C2529      C2530   1.420       .  A
C2530      N2531   1.438       .  S
N2531      H2535   1.045       .  S
N2531      H2536   1.045       .  S
N2534      H2537   1.045       .  S
N2534      H2538   1.046       .  S
C2539      C2540   1.410       .  A
C2539      C2544   1.412       .  A
C2539      H2546   1.081       .  S
C2540      C2541   1.429       .  A
C2541      C2542   1.407       .  A
C2541      N2548   1.437       .  S
C2542      C2543   1.406       .  A
C2542      H2547   1.083       .  S
C2543      C2544   1.419       .  A
C2544      N2545   1.437       .  S
N2545      H2549   1.045       .  S
N2545      H2550   1.046       .  S
N2548      H2551   1.041       .  S
N2548      H2552   1.042       .  S
C2553      C2554   1.402       .  A
C2553      C2558   1.404       .  A
C2553      H2560   1.084       .  S
C2554      C3443   1.417   1_545  A
C2554      N3191   1.436   1_545  S
C2555      C3442   1.416       .  A
C2555      C3444   1.398       .  A
C2555      N2562   1.439       .  S
C2556      C3443   1.400   1_545  A
C2556      C2557   1.400       .  A
C2556      H2561   1.084       .  S
C2557      C2558   1.416       .  A
C2558      N2559   1.438       .  S
N2559      H2563   1.046       .  S
N2559      H2564   1.043       .  S
N2562      H2565   1.042       .  S
N2562      H2566   1.046       .  S
C2567      C2568   1.403   1_545  A
C2567      C2572   1.405       .  A
C2567      H2574   1.083       .  S
C2568      C3013   1.417   1_556  A
C2568      N3168   1.435       .  S
C2569      C3012   1.416       .  A
C2569      C3458   1.399       .  A
C2569      N2576   1.439       .  S
C2570      C3457   1.399   1_545  A
C2570      H2575   1.084       .  S
C2571      C2572   1.409       .  A
C2572      N2573   1.437       .  S
N2573      H2577   1.046       .  S
N2573      H2578   1.046       .  S
N2576      H2579   1.042       .  S
N2576      H2580   1.046       .  S
C2581      C2582   1.412       .  A
C2581      C2586   1.411       .  A
C2581      H2588   1.081       .  S
C2582      C2583   1.429       .  A
C2583      C2584   1.406       .  A
C2583      N2590   1.439       .  S
C2584      C2585   1.407       .  A
C2584      H2589   1.081       .  S
C2585      C2586   1.414       .  A
C2586      N2587   1.432       .  S
N2587      H2591   1.046       .  S
N2587      H2592   1.045       .  S
N2590      H2593   1.038       .  S
N2590      H2594   1.046       .  S
C2595      C2596   1.407       .  A
C2595      C2600   1.408       .  A
C2595      H2602   1.082       .  S
C2596      C2597   1.417       .  A
C2597      C2598   1.407       .  A
C2597      N2604   1.438       .  S
C2598      C2599   1.409       .  A
C2598      H2603   1.080       .  S
C2599      C2600   1.428       .  A
C2600      N2601   1.439       .  S
N2601      H2605   1.045       .  S
N2601      H2606   1.039       .  S
N2604      H2607   1.045       .  S
N2604      H2608   1.045       .  S
C2609      C2610   1.403       .  A
C2609      H2616   1.083       .  S
C2611      C2612   1.399       .  A
C2611      N2618   1.431       .  S
C2612      C2613   1.401       .  A
C2612      H2617   1.084       .  S
C2613      C2614   1.414       .  A
C2614      N2615   1.431       .  S
N2615      H2620   1.046       .  S
N2618      H2621   1.046       .  S
N2618      H2622   1.041       .  S
C2623      C2628   1.396       .  A
C2623      H2630   1.084       .  S
C2625      N2632   1.432       .  S
C2626      C2627   1.405   1_556  A
C2626      H2631   1.084       .  S
C2628      N2629   1.430       .  S
N2629      H2633   1.042       .  S
N2629      H2634   1.046       .  S
N2632      H2635   1.046       .  S
N2632      H2636   1.044       .  S
C2637      C2638   1.406       .  A
C2637      C2642   1.410       .  A
C2637      H2644   1.083       .  S
C2638      C2639   1.420       .  A
C2639      C2640   1.409       .  A
C2639      N2646   1.438       .  S
C2640      C2641   1.409       .  A
C2640      H2645   1.081       .  S
C2641      C2642   1.429       .  A
C2642      N2643   1.436       .  S
N2643      H2647   1.044       .  S
N2643      H2648   1.040       .  S
N2646      H2649   1.046       .  S
N2646      H2650   1.046       .  S
C2651      C2652   1.406       .  A
C2651      C2656   1.408       .  A
C2651      H2658   1.083       .  S
C2652      C2653   1.418       .  A
C2653      C2654   1.409       .  A
C2653      N2660   1.438       .  S
C2654      C2655   1.409       .  A
C2654      H2659   1.081       .  S
C2655      C2656   1.428       .  A
C2656      N2657   1.438       .  S
N2657      H2661   1.046       .  S
N2657      H2662   1.039       .  S
N2660      H2663   1.045       .  S
N2660      H2664   1.046       .  S
C2665      C2667   1.528       .  S
C2665      C2669   1.546       .  S
C2665      C2668   1.541       .  S
C2665      C3082   1.548       .  S
C2666      C2670   1.528       .  S
C2666      C2672   1.550       .  S
C2666      C2671   1.544       .  S
C2666      C3099   1.550       .  S
C2667      C2675   1.375       .  A
C2667      C3114   1.387       .  A
C2668      C2679   1.378       .  A
C2668      C3115   1.401       .  A
C2669      C2683   1.382       .  A
C2669      C3116   1.418       .  A
C2670      C3111   1.388   1_554  A
C2670      C2673   1.374       .  A
C2671      C3112   1.400   1_554  A
C2671      C2677   1.376       .  A
C2672      C3113   1.416   1_554  A
C2672      C2680   1.386       .  A
C2673      N2674   1.355   1_554  A
C2673      H2686   1.083       .  S
N2674      C3119   1.356       .  A
N2674      C2775   1.426       .  S
C2675      N3118   1.356       .  A
C2675      H2676   1.083       .  S
C2677      N3122   1.356       .  A
C2677      H2687   1.081       .  S
N2678      C3121   1.356       .  A
N2678      C2679   1.357       .  A
C2679      H2685   1.082       .  S
C2680      N2681   1.350   1_554  A
C2680      H2682   1.082       .  S
N2681      C3127   1.349       .  A
N2681      C2913   1.430       .  S
C2683      N3125   1.348       .  A
C2683      H2684   1.083       .  S
C2688      C2690   1.532       .  S
C2688      C2692   1.544       .  S
C2688      C2691   1.548       .  S
C2688      C3096   1.546       .  S
C2689      C2693   1.533       .  S
C2689      C2695   1.556       .  S
C2689      C2694   1.547       .  S
C2689      C3085   1.553       .  S
C2690      C2698   1.379       .  A
C2690      C2693   1.389       .  A
C2691      C2702   1.383       .  A
C2691      C2694   1.400       .  A
C2692      C2706   1.385       .  A
C2692      C2695   1.412       .  A
C2693      C2696   1.378       .  A
C2694      C2700   1.380       .  A
C2695      C2703   1.389       .  A
C2696      N2697   1.358       .  A
C2696      H2709   1.083       .  S
N2697      C2698   1.357       .  A
N2697      C2801   1.432       .  S
C2698      H2699   1.083       .  S
C2700      N2701   1.358       .  A
C2700      H2710   1.081       .  S
N2701      C2702   1.358       .  A
N2701      C3054   1.440       .  S
C2702      H2708   1.082       .  S
C2703      N2704   1.353       .  A
C2703      H2705   1.082       .  S
N2704      C2706   1.351       .  A
N2704      C2938   1.435       .  S
C2706      H2707   1.083       .  S
C2711      C2713   1.539       .  S
C2711      C2715   1.539       .  S
C2711      C2714   1.549       .  S
C2711      C3029   1.548       .  S
C2712      C2716   1.542       .  S
C2712      C2718   1.536       .  S
C2712      C2717   1.541       .  S
C2712      C3040   1.546       .  S
C2713      C2721   1.380       .  A
C2713      C3160   1.396       .  A
C2714      C2725   1.382       .  A
C2714      C3161   1.402       .  A
C2715      C2729   1.381       .  A
C2715      C3162   1.410       .  A
C2716      C3157   1.395   1_554  A
C2716      C2719   1.381       .  A
C2717      C3158   1.402   1_554  A
C2717      C2723   1.379       .  A
C2718      C3159   1.412   1_554  A
C2718      C2726   1.383       .  A
C2719      N3164   1.357   1_554  A
C2719      H2732   1.082       .  S
N2720      C3163   1.355       .  A
N2720      C2721   1.355       .  A
N2720      C2773   1.431       .  S
C2721      H2722   1.082       .  S
C2723      N3168   1.354   1_554  A
C2723      H2733   1.082       .  S
N2724      C3167   1.354       .  A
N2724      C2725   1.353       .  A
C2725      H2731   1.082       .  S
C2726      N3171   1.350       .  A
C2726      H2728   1.083       .  S
N2727      C3170   1.352       .  A
N2727      C2729   1.352       .  A
N2727      C3359   1.431       .  S
C2729      H2730   1.083       .  S
C2734      C2736   1.551       .  S
C2734      C2738   1.528       .  S
C2734      C2737   1.540       .  S
C2734      C3043   1.549       .  S
C2735      C2739   1.556       .  S
C2735      C2741   1.528       .  S
C2735      C2740   1.541       .  S
C2735      C3026   1.552       .  S
C2736      C2744   1.388       .  A
C2736      C2739   1.425       .  A
C2737      C2748   1.377       .  A
C2737      C2740   1.398       .  A
C2738      C2752   1.377       .  A
C2738      C2741   1.385       .  A
C2739      C2742   1.388       .  A
C2740      C2746   1.376       .  A
C2741      C2749   1.376       .  A
C2742      N2743   1.350       .  A
C2742      H2755   1.082       .  S
N2743      C2744   1.349       .  A
N2743      C2795   1.436       .  S
C2744      H2745   1.082       .  S
C2746      N2747   1.357       .  A
C2746      H2756   1.082       .  S
N2747      C2748   1.356       .  A
C2748      H2754   1.082       .  S
C2749      N2750   1.355       .  A
C2749      H2751   1.083       .  S
N2750      C2752   1.355       .  A
N2750      C2939   1.427       .  S
C2752      H2753   1.083       .  S
O2757      C2773   1.275       .  A
C2758      O2771   1.268       .  A
C2758      C2781   1.442       .  S
O2759      C3216   1.276   1_554  A
O2760      C2778   1.272       .  A
O2760     Cd2769   2.065       .  S
O2761      C2775   1.272   1_554  A
O2761     Cd2765   2.062       .  S
O2762      C3217   1.273   1_554  A
Zn2763     O2774   1.979   1_565  S
Zn2763     O2776   2.040       .  S
O2764     Cd2769   2.055       .  S
Cd2765     O2767   2.022       .  S
Cd2766     O2770   2.032       .  S
Cd2766     O2779   2.089       .  S
Cd2766     O3212   1.990   1_554  S
O2768     Cd3210   1.990       .  S
O2768     Cd2769   1.992       .  S
Cd2769     O2771   2.016       .  S
O2770      C2777   1.271       .  A
C2772      N2812   1.437       .  S
C2772      O3203   1.276       .  A
C2772      O2776   1.276       .  A
C2773      O3206   1.273   1_565  A
C2777      C2800   1.441       .  S
C2778      N2865   1.433       .  S
C2778      O3223   1.276       .  A
O2779      C3222   1.277   1_554  A
O2780      C2796   1.274       .  A
O2780     Zn2786   2.029       .  S
C2781      O2794   1.271       .  A
O2782      C2795   1.277       .  A
O2783     Cd2792   2.071       .  S
O2784      C2798   1.273       .  A
O2784     Cd2788   2.070       .  S
O2785      C2796   1.272       .  A
Zn2786     O2797   1.971   1_565  S
O2787      C2798   1.276       .  A
O2787     Cd2792   2.091       .  S
Cd2788     O2790   2.015       .  S
Cd2788     O2791   1.987       .  S
Cd2789     O2793   2.039       .  S
Cd2789     O2802   2.085       .  S
O2790      C2800   1.268       .  A
O2791     Cd2792   1.994       .  S
Cd2792     O2794   2.030       .  S
C2795      O2799   1.273       .  A
C2796      N2835   1.430       .  S
C2798      N2888   1.435       .  S
C2801      O2802   1.277       .  A
C2803      C2805   1.541       .  S
C2803      C2807   1.547       .  S
C2803      C2806   1.540       .  S
C2803      C2970   1.547       .  S
C2804      C2808   1.549       .  S
C2804      C2810   1.538       .  S
C2804      C2809   1.545       .  S
C2804      C2984   1.552       .  S
C2805      C2813   1.382       .  A
C2805      C3252   1.401       .  A
C2806      C2817   1.377       .  A
C2806      C3253   1.400       .  A
C2807      C2821   1.387       .  A
C2807      C3254   1.398       .  A
C2808      C3249   1.406   1_554  A
C2808      C2811   1.386       .  A
C2809      C3250   1.399   1_554  A
C2809      C2815   1.378       .  A
C2810      C3251   1.395   1_554  A
C2810      C2818   1.380       .  A
C2811      N3256   1.355   1_554  A
C2811      H2824   1.082       .  S
N2812      C3255   1.357       .  A
N2812      C2813   1.356       .  A
C2813      H2814   1.082       .  S
C2815      N3260   1.355   1_554  A
C2815      H2825   1.081       .  S
N2816      C3259   1.356       .  A
N2816      C2817   1.354       .  A
N2816      C3071   1.433       .  S
C2817      H2823   1.081       .  S
C2818      N3263   1.356   1_554  A
C2818      H2820   1.082       .  S
N2819      C3262   1.355       .  A
N2819      C2821   1.357       .  A
N2819      C2910   1.435       .  S
C2821      H2822   1.082       .  S
C2826      C2828   1.547       .  S
C2826      C2830   1.533       .  S
C2826      C2829   1.547       .  S
C2826      C2987   1.549       .  S
C2827      C2831   1.534       .  S
C2827      C2833   1.540       .  S
C2827      C2832   1.549       .  S
C2827      C2973   1.546       .  S
C2828      C2836   1.383       .  A
C2828      C2831   1.408       .  A
C2829      C2840   1.381       .  A
C2829      C2832   1.401       .  A
C2830      C2844   1.379       .  A
C2830      C2833   1.394       .  A
C2831      C2834   1.381       .  A
C2832      C2838   1.382       .  A
C2833      C2841   1.379       .  A
C2834      N2835   1.351       .  A
C2834      H2847   1.083       .  S
N2835      C2836   1.352       .  A
C2836      H2837   1.082       .  S
C2838      N2839   1.358       .  A
C2838      H2848   1.082       .  S
N2839      C2840   1.358       .  A
N2839      C3057   1.439       .  S
C2840      H2846   1.082       .  S
C2841      N2842   1.354       .  A
C2841      H2843   1.082       .  S
N2842      C2844   1.356       .  A
N2842      C2919   1.430       .  S
C2844      H2845   1.082       .  S
C2849      C2851   1.535       .  S
C2849      C2853   1.546       .  S
C2849      C2852   1.532       .  S
C2849      C2956   1.547       .  S
C2850      C2854   1.548       .  S
C2850      C2856   1.555       .  S
C2850      C2855   1.538       .  S
C2850      C2942   1.548       .  S
C2851      C2859   1.372       .  A
C2851      C3298   1.396   1_554  A
C2852      C2863   1.376       .  A
C2852      C3299   1.392   1_554  A
C2853      C2867   1.383       .  A
C2853      C3300   1.407   1_554  A
C2854      C3295   1.397       .  A
C2854      C2857   1.387       .  A
C2855      C3296   1.393       .  A
C2855      C2861   1.377       .  A
C2856      C3297   1.404       .  A
C2856      C2864   1.383       .  A
C2857      N2858   1.358       .  A
C2857      H2870   1.081       .  S
N2858      C3303   1.355       .  A
N2858      C2896   1.432       .  S
C2859      N3302   1.354   1_554  A
C2859      H2860   1.083       .  S
C2861      N2862   1.356       .  A
C2861      H2871   1.083       .  S
N2862      C3307   1.356       .  A
N2862      C3015   1.432       .  S
C2863      N3306   1.356   1_554  A
C2863      H2869   1.082       .  S
C2864      N2865   1.357       .  A
C2864      H2866   1.081       .  S
N2865      C3311   1.354       .  A
C2867      N3309   1.355   1_554  A
C2867      H2868   1.082       .  S
C2872      C2874   1.544       .  S
C2872      C2876   1.553       .  S
C2872      C2875   1.536       .  S
C2872      C2945   1.552       .  S
C2873      C2877   1.537       .  S
C2873      C2879   1.546       .  S
C2873      C2878   1.544       .  S
C2873      C2959   1.546       .  S
C2874      C2882   1.378       .  A
C2874      C2877   1.400       .  A
C2875      C2886   1.375       .  A
C2875      C2878   1.395       .  A
C2876      C2890   1.386       .  A
C2876      C2879   1.401       .  A
C2877      C2880   1.379       .  A
C2878      C2884   1.383       .  A
C2879      C2887   1.381       .  A
C2880      N2881   1.356       .  A
C2880      H2893   1.083       .  S
N2881      C2882   1.355       .  A
N2881      C2934   1.430       .  S
C2882      H2883   1.079       .  S
C2884      N2885   1.358       .  A
C2884      H2894   1.082       .  S
N2885      C2886   1.355       .  A
N2885      C3001   1.435       .  S
C2886      H2892   1.083       .  S
C2887      N2888   1.356       .  A
C2887      H2889   1.082       .  S
N2888      C2890   1.356       .  A
C2890      H2891   1.081       .  S
O2895      C2911   1.269       .  A
O2895     Zn2901   1.981       .  S
C2896      O2912   1.276       .  A
C2896      O3353   1.272       .  A
O2897      C3354   1.275   1_554  A
O2897     Cd2904   2.080       .  S
O2898      C2916   1.267       .  A
O2898     Cd2907   2.019       .  S
O2899      C3357   1.272       .  A
O2899     Cd2903   2.061       .  S
O2900      C2911   1.268       .  A
O2900     Cd2903   2.026       .  S
Zn2901     O2912   2.045       .  S
Zn2901     O2914   2.041       .  S
Zn2901     O2906   1.947       .  S
O2902      C2913   1.273   1_554  A
O2902     Cd2907   2.071       .  S
Cd2903     O2905   2.060       .  S
Cd2903     O2906   1.991       .  S
Cd2904     O2908   2.085       .  S
Cd2904     O2917   2.039       .  S
Cd2904     O3350   1.992   1_554  S
O2905      C3359   1.272       .  A
O2906     Cd3348   1.994       .  S
O2906     Cd3351   1.986       .  S
Cd2907     O2909   2.047       .  S
Cd2907     O3350   1.985   1_554  S
O2908      C2915   1.277       .  A
O2909      C3340   1.272   1_554  A
C2910      O3341   1.275       .  A
C2910      O2914   1.277       .  A
C2911      C2936   1.431       .  S
C2913      O3343   1.272       .  A
C2915      N3171   1.430       .  S
C2915      O3349   1.272   1_554  A
C2916      O2917   1.270       .  A
C2916      C2933   1.429       .  S
O2918      C2934   1.274       .  A
O2918     Zn2924   2.026       .  S
C2919      O2935   1.273       .  A
C2919      O2932   1.273       .  A
O2920      C2933   1.268       .  A
O2920     Cd2927   2.018       .  S
O2921      C2939   1.273       .  A
O2921     Cd2930   2.062       .  S
O2922      C2936   1.269       .  A
O2922     Cd2926   2.035       .  S
O2923      C2934   1.276       .  A
O2923     Cd2926   2.069       .  S
Zn2924     O2935   2.024       .  S
Zn2924     O2937   1.981       .  S
Zn2924     O2929   1.948       .  S
O2925      C2936   1.268       .  A
O2925     Cd2930   2.027       .  S
Cd2926     O2928   2.086       .  S
Cd2926     O2929   1.988       .  S
Cd2927     O2931   2.074       .  S
Cd2927     O2940   2.064       .  S
Cd2927     O2929   1.991       .  S
O2928      C2938   1.275       .  A
O2929     Cd2930   1.989       .  S
Cd2930     O2932   2.067       .  S
O2931      C2938   1.274       .  A
C2933      O2937   1.270       .  A
C2939      O2940   1.273       .  A
C2941      C2942   1.408       .  A
C2941      C2946   1.407       .  A
C2941      H2948   1.080       .  S
C2942      C2943   1.419       .  A
C2943      C2944   1.411       .  A
C2943      N2950   1.437       .  S
C2944      C2945   1.409       .  A
C2944      H2949   1.078       .  S
C2945      C2946   1.428       .  A
C2946      N2947   1.439       .  S
N2947      H2951   1.045       .  S
N2947      H2952   1.040       .  S
N2950      H2953   1.044       .  S
N2950      H2954   1.046       .  S
C2955      C2956   1.410       .  A
C2955      C2960   1.410       .  A
C2955      H2962   1.081       .  S
C2956      C2957   1.428       .  A
C2957      C2958   1.407       .  A
C2957      N2964   1.439       .  S
C2958      C2959   1.407       .  A
C2958      H2963   1.080       .  S
C2959      C2960   1.417       .  A
C2960      N2961   1.438       .  S
N2961      H2965   1.045       .  S
N2961      H2966   1.045       .  S
N2964      H2967   1.041       .  S
N2964      H2968   1.044       .  S
C2969      C2970   1.409       .  A
C2969      C2974   1.410       .  A
C2969      H2976   1.081       .  S
C2970      C2971   1.417       .  A
C2971      C2972   1.410       .  A
C2971      N2978   1.432       .  S
C2972      C2973   1.408       .  A
C2972      H2977   1.081       .  S
C2973      C2974   1.420       .  A
C2974      N2975   1.438       .  S
N2975      H2979   1.046       .  S
N2975      H2980   1.045       .  S
N2978      H2981   1.046       .  S
N2978      H2982   1.046       .  S
C2983      C2984   1.409       .  A
C2983      C2988   1.411       .  A
C2983      H2990   1.081       .  S
C2984      C2985   1.429       .  A
C2985      C2986   1.408       .  A
C2985      N2992   1.437       .  S
C2986      C2987   1.406       .  A
C2986      H2991   1.083       .  S
C2987      C2988   1.420       .  A
C2988      N2989   1.437       .  S
N2989      H2993   1.045       .  S
N2989      H2994   1.046       .  S
N2992      H2995   1.037       .  S
N2992      H2996   1.046       .  S
C2997      C2998   1.402       .  A
C2997      C3002   1.404       .  A
C2997      H3004   1.084       .  S
C2999      N3006   1.439       .  S
C3000      C3001   1.400       .  A
C3000      H3005   1.084       .  S
C3001      C3002   1.417       .  A
C3002      N3003   1.438       .  S
N3003      H3007   1.046       .  S
N3003      H3008   1.043       .  S
N3006      H3009   1.042       .  S
N3006      H3010   1.046       .  S
C3011      C3012   1.402       .  A
C3011      C3016   1.405       .  A
C3011      H3018   1.083       .  S
C3013      N3020   1.439       .  S
C3014      C3459   1.400   1_554  A
C3014      H3019   1.084       .  S
C3015      C3458   1.399       .  A
C3015      C3016   1.408       .  A
C3016      N3017   1.437       .  S
N3017      H3021   1.046       .  S
N3017      H3022   1.046       .  S
N3020      H3023   1.042       .  S
N3020      H3024   1.046       .  S
C3025      C3026   1.412       .  A
C3025      C3030   1.410       .  A
C3025      H3032   1.081       .  S
C3026      C3027   1.430       .  A
C3027      C3028   1.407       .  A
C3027      N3034   1.439       .  S
C3028      C3029   1.407       .  A
C3028      H3033   1.081       .  S
C3029      C3030   1.413       .  A
C3030      N3031   1.432       .  S
N3031      H3035   1.045       .  S
N3031      H3036   1.046       .  S
N3034      H3037   1.038       .  S
N3034      H3038   1.046       .  S
C3039      C3040   1.408       .  A
C3039      C3044   1.407       .  A
C3039      H3046   1.081       .  S
C3040      C3041   1.416       .  A
C3041      C3042   1.410       .  A
C3041      N3048   1.438       .  S
C3042      C3043   1.410       .  A
C3042      H3047   1.080       .  S
C3043      C3044   1.429       .  A
C3044      N3045   1.439       .  S
N3045      H3049   1.046       .  S
N3045      H3050   1.039       .  S
N3048      H3051   1.045       .  S
N3048      H3052   1.045       .  S
C3053      C3054   1.403       .  A
C3053      H3060   1.083       .  S
C3055      C3056   1.400       .  A
C3055      N3062   1.431       .  S
C3056      C3057   1.401       .  A
C3056      H3061   1.084       .  S
C3057      C3058   1.414       .  A
C3058      N3059   1.431       .  S
N3059      H3064   1.046       .  S
N3062      H3065   1.045       .  S
N3062      H3066   1.042       .  S
C3067      C3512   1.401       .  A
C3067      C3072   1.396       .  A
C3067      H3074   1.084       .  S
C3068      C3511   1.402       .  A
C3069      N3076   1.431       .  S
C3070      C3071   1.403       .  A
C3070      H3075   1.083       .  S
C3071      C3516   1.410       .  A
C3072      C3515   1.409       .  A
C3072      N3073   1.431       .  S
N3073      H3077   1.044       .  S
N3073      H3078   1.045       .  S
N3076      H3079   1.046       .  S
N3076      H3080   1.045       .  S
C3081      C3082   1.407       .  A
C3081      C3086   1.410       .  A
C3081      H3088   1.083       .  S
C3082      C3083   1.420       .  A
C3083      C3084   1.409       .  A
C3083      N3090   1.437       .  S
C3084      C3085   1.409       .  A
C3084      H3089   1.080       .  S
C3085      C3086   1.428       .  A
C3086      N3087   1.436       .  S
N3087      H3091   1.044       .  S
N3087      H3092   1.041       .  S
N3090      H3093   1.046       .  S
N3090      H3094   1.045       .  S
C3095      C3096   1.407       .  A
C3095      C3100   1.408       .  A
C3095      H3102   1.083       .  S
C3096      C3097   1.419       .  A
C3097      C3098   1.409       .  A
C3097      N3104   1.437       .  S
C3098      C3099   1.409       .  A
C3098      H3103   1.081       .  S
C3099      C3100   1.429       .  A
C3100      N3101   1.439       .  S
N3101      H3105   1.046       .  S
N3101      H3106   1.039       .  S
N3104      H3107   1.045       .  S
N3104      H3108   1.046       .  S
C3109      C3111   1.528       .  S
C3109      C3113   1.545       .  S
C3109      C3112   1.541       .  S
C3109      C3526   1.548       .  S
C3110      C3114   1.527       .  S
C3110      C3116   1.549       .  S
C3110      C3115   1.545       .  S
C3110      C3543   1.550       .  S
C3111      C3119   1.376       .  A
C3112      C3123   1.378       .  A
C3113      C3127   1.382       .  A
C3114      C3117   1.374       .  A
C3115      C3121   1.375       .  A
C3116      C3124   1.386       .  A
C3117      N3118   1.355       .  A
C3117      H3130   1.083       .  S
N3118      C3219   1.426       .  S
C3119      H3120   1.083       .  S
C3121      H3131   1.081       .  S
N3122      C3123   1.357   1_554  A
C3123      H3129   1.082       .  S
C3124      N3125   1.349       .  A
C3124      H3126   1.082       .  S
N3125      C3357   1.429       .  S
C3127      H3128   1.083       .  S
C3132      C3134   1.532       .  S
C3132      C3136   1.543       .  S
C3132      C3135   1.546       .  S
C3132      C3540   1.545       .  S
C3133      C3137   1.533       .  S
C3133      C3139   1.555       .  S
C3133      C3138   1.546       .  S
C3133      C3529   1.551       .  S
C3134      C3142   1.379       .  A
C3134      C3137   1.390       .  A
C3135      C3146   1.380       .  A
C3135      C3138   1.400       .  A
C3136      C3150   1.383       .  A
C3136      C3139   1.410       .  A
C3137      C3140   1.377       .  A
C3138      C3144   1.380       .  A
C3139      C3147   1.388       .  A
C3140      N3141   1.358       .  A
C3140      H3153   1.083       .  S
N3141      C3142   1.358       .  A
N3141      C3245   1.432       .  S
C3142      H3143   1.083       .  S
C3144      N3145   1.356       .  A
C3144      H3154   1.081       .  S
N3145      C3146   1.356       .  A
N3145      C3498   1.436       .  S
C3146      H3152   1.082       .  S
C3147      N3148   1.353       .  A
C3147      H3149   1.082       .  S
N3148      C3150   1.351       .  A
N3148      C3382   1.433       .  S
C3150      H3151   1.083       .  S
C3155      C3157   1.538       .  S
C3155      C3159   1.539       .  S
C3155      C3158   1.551       .  S
C3155      C3473   1.548       .  S
C3156      C3160   1.540       .  S
C3156      C3162   1.536       .  S
C3156      C3161   1.540       .  S
C3156      C3484   1.546       .  S
C3157      C3165   1.380       .  A
C3158      C3169   1.383       .  A
C3159      C3173   1.381       .  A
C3160      C3163   1.380       .  A
C3161      C3167   1.379       .  A
C3162      C3170   1.383       .  A
C3163      H3176   1.082       .  S
N3164      C3165   1.355       .  A
N3164      C3217   1.433       .  S
C3165      H3166   1.082       .  S
C3167      H3177   1.082       .  S
N3168      C3169   1.354       .  A
C3169      H3175   1.082       .  S
C3170      H3172   1.083       .  S
N3171      C3173   1.352   1_554  A
C3173      H3174   1.083       .  S
C3178      C3180   1.551       .  S
C3178      C3182   1.530       .  S
C3178      C3181   1.540       .  S
C3178      C3487   1.549       .  S
C3179      C3183   1.556       .  S
C3179      C3185   1.529       .  S
C3179      C3184   1.543       .  S
C3179      C3470   1.551       .  S
C3180      C3188   1.387       .  A
C3180      C3183   1.425       .  A
C3181      C3192   1.378       .  A
C3181      C3184   1.396       .  A
C3182      C3196   1.379       .  A
C3182      C3185   1.385       .  A
C3183      C3186   1.388       .  A
C3184      C3190   1.378       .  A
C3185      C3193   1.377       .  A
C3186      N3187   1.351       .  A
C3186      H3199   1.082       .  S
N3187      C3188   1.348       .  A
N3187      C3239   1.434       .  S
C3188      H3189   1.082       .  S
C3190      N3191   1.358       .  A
C3190      H3200   1.082       .  S
N3191      C3192   1.356       .  A
C3192      H3198   1.081       .  S
C3193      N3194   1.355       .  A
C3193      H3195   1.083       .  S
N3194      C3196   1.356       .  A
N3194      C3383   1.429       .  S
C3196      H3197   1.083       .  S
O3201      C3217   1.276       .  A
C3202      O3215   1.268       .  A
C3202      C3225   1.439       .  S
O3204      C3222   1.273       .  A
O3204     Cd3213   2.070       .  S
O3205      C3219   1.273       .  A
O3205     Cd3209   2.068       .  S
Zn3207     O3218   1.990   1_565  S
Zn3207     O3220   2.044       .  S
O3208     Cd3213   2.059       .  S
Cd3209     O3211   2.024       .  S
Cd3210     O3214   2.030       .  S
Cd3210     O3223   2.086       .  S
O3212     Cd3213   1.989       .  S
Cd3213     O3215   2.010       .  S
O3214      C3221   1.271       .  A
C3216      N3256   1.437       .  S
C3216      O3220   1.277       .  A
C3221      C3244   1.440       .  S
C3222      N3309   1.435       .  S
O3224      C3240   1.273       .  A
O3224     Zn3230   2.026       .  S
C3225      O3238   1.271       .  A
O3226      C3239   1.276       .  A
O3227     Cd3236   2.071       .  S
O3228      C3242   1.272       .  A
O3228     Cd3232   2.063       .  S
O3229      C3240   1.271       .  A
Zn3230     O3241   1.971   1_565  S
O3231      C3242   1.276       .  A
O3231     Cd3236   2.094       .  S
Cd3232     O3234   2.014       .  S
Cd3232     O3235   1.984       .  S
Cd3233     O3237   2.037       .  S
Cd3233     O3246   2.084       .  S
O3234      C3244   1.269       .  A
O3235     Cd3236   1.990       .  S
Cd3236     O3238   2.021       .  S
C3239      O3243   1.273       .  A
C3240      N3279   1.429       .  S
C3242      N3332   1.435       .  S
C3245      O3246   1.276       .  A
C3247      C3249   1.543       .  S
C3247      C3251   1.548       .  S
C3247      C3250   1.540       .  S
C3247      C3414   1.546       .  S
C3248      C3252   1.549       .  S
C3248      C3254   1.538       .  S
C3248      C3253   1.548       .  S
C3248      C3428   1.552       .  S
C3249      C3257   1.385       .  A
C3250      C3261   1.378       .  A
C3251      C3265   1.387       .  A
C3252      C3255   1.386       .  A
C3253      C3259   1.380       .  A
C3254      C3262   1.379       .  A
C3255      H3268   1.082       .  S
N3256      C3257   1.355       .  A
C3257      H3258   1.082       .  S
C3259      H3269   1.081       .  S
N3260      C3261   1.354       .  A
N3260      C3515   1.432   1_556  S
C3261      H3267   1.081       .  S
C3262      H3264   1.083       .  S
N3263      C3265   1.358       .  A
N3263      C3354   1.437       .  S
C3265      H3266   1.082       .  S
C3270      C3272   1.548       .  S
C3270      C3274   1.534       .  S
C3270      C3273   1.546       .  S
C3270      C3431   1.549       .  S
C3271      C3275   1.533       .  S
C3271      C3277   1.539       .  S
C3271      C3276   1.546       .  S
C3271      C3417   1.544       .  S
C3272      C3280   1.383       .  A
C3272      C3275   1.408       .  A
C3273      C3284   1.381       .  A
C3273      C3276   1.400       .  A
C3274      C3288   1.379       .  A
C3274      C3277   1.395       .  A
C3275      C3278   1.380       .  A
C3276      C3282   1.380       .  A
C3277      C3285   1.379       .  A
C3278      N3279   1.351       .  A
C3278      H3291   1.083       .  S
N3279      C3280   1.352       .  A
C3280      H3281   1.082       .  S
C3282      N3283   1.356       .  A
C3282      H3292   1.082       .  S
N3283      C3284   1.357       .  A
N3283      C3501   1.437       .  S
C3284      H3290   1.082       .  S
C3285      N3286   1.354       .  A
C3285      H3287   1.082       .  S
N3286      C3288   1.355       .  A
N3286      C3363   1.428       .  S
C3288      H3289   1.082       .  S
C3293      C3295   1.535       .  S
C3293      C3297   1.545       .  S
C3293      C3296   1.534       .  S
C3293      C3400   1.549       .  S
C3294      C3298   1.547       .  S
C3294      C3300   1.556       .  S
C3294      C3299   1.539       .  S
C3294      C3386   1.548       .  S
C3295      C3303   1.373       .  A
C3296      C3307   1.376       .  A
C3297      C3311   1.381       .  A
C3298      C3301   1.387       .  A
C3299      C3305   1.377       .  A
C3300      C3308   1.383       .  A
C3301      N3302   1.357       .  A
C3301      H3314   1.081       .  S
N3302      C3340   1.430       .  S
C3303      H3304   1.083       .  S
C3305      N3306   1.357       .  A
C3305      H3315   1.082       .  S
N3306      C3459   1.433       .  S
C3307      H3313   1.081       .  S
C3308      N3309   1.356       .  A
C3308      H3310   1.081       .  S
C3311      H3312   1.082       .  S
C3316      C3318   1.543       .  S
C3316      C3320   1.554       .  S
C3316      C3319   1.535       .  S
C3316      C3389   1.550       .  S
C3317      C3321   1.538       .  S
C3317      C3323   1.547       .  S
C3317      C3322   1.542       .  S
C3317      C3403   1.547       .  S
C3318      C3326   1.377       .  A
C3318      C3321   1.400       .  A
C3319      C3330   1.375       .  A
C3319      C3322   1.394       .  A
C3320      C3334   1.387       .  A
C3320      C3323   1.401       .  A
C3321      C3324   1.380       .  A
C3322      C3328   1.382       .  A
C3323      C3331   1.381       .  A
C3324      N3325   1.357       .  A
C3324      H3337   1.083       .  S
N3325      C3326   1.355       .  A
N3325      C3378   1.432       .  S
C3326      H3327   1.079       .  S
C3328      N3329   1.357       .  A
C3328      H3338   1.082       .  S
N3329      C3330   1.354       .  A
N3329      C3445   1.433       .  S
C3330      H3336   1.083       .  S
C3331      N3332   1.356       .  A
C3331      H3333   1.082       .  S
N3332      C3334   1.356       .  A
C3334      H3335   1.081       .  S
O3339      C3355   1.269       .  A
O3339     Zn3345   1.977       .  S
C3340      O3356   1.276       .  A
O3341     Cd3348   2.076       .  S
O3342      C3360   1.266       .  A
O3342     Cd3351   2.016       .  S
O3343     Cd3347   2.065       .  S
O3344      C3355   1.268       .  A
O3344     Cd3347   2.020       .  S
Zn3345     O3356   2.042       .  S
Zn3345     O3358   2.042       .  S
Zn3345     O3350   1.947       .  S
O3346      C3357   1.273       .  A
O3346     Cd3351   2.070       .  S
Cd3347     O3349   2.056       .  S
Cd3347     O3350   1.990       .  S
Cd3348     O3352   2.086       .  S
Cd3348     O3361   2.040       .  S
Cd3351     O3353   2.050       .  S
O3352      C3359   1.277       .  A
C3354      O3358   1.276       .  A
C3355      C3380   1.428       .  S
C3360      O3361   1.270       .  A
C3360      C3377   1.428       .  S
O3362      C3378   1.274       .  A
O3362     Zn3368   2.029       .  S
C3363      O3379   1.273       .  A
C3363      O3376   1.273       .  A
O3364      C3377   1.268       .  A
O3364     Cd3371   2.018       .  S
O3365      C3383   1.273       .  A
O3365     Cd3374   2.068       .  S
O3366      C3380   1.269       .  A
O3366     Cd3370   2.028       .  S
O3367      C3378   1.276       .  A
O3367     Cd3370   2.073       .  S
Zn3368     O3379   2.020       .  S
Zn3368     O3381   1.977       .  S
Zn3368     O3373   1.947       .  S
O3369      C3380   1.268       .  A
O3369     Cd3374   2.025       .  S
Cd3370     O3372   2.086       .  S
Cd3370     O3373   1.990       .  S
Cd3371     O3375   2.068       .  S
Cd3371     O3384   2.068       .  S
Cd3371     O3373   1.990       .  S
O3372      C3382   1.276       .  A
O3373     Cd3374   1.989       .  S
Cd3374     O3376   2.067       .  S
O3375      C3382   1.273       .  A
C3377      O3381   1.269       .  A
C3383      O3384   1.272       .  A
C3385      C3386   1.409       .  A
C3385      C3390   1.407       .  A
C3385      H3392   1.080       .  S
C3386      C3387   1.419       .  A
C3387      C3388   1.410       .  A
C3387      N3394   1.437       .  S
C3388      C3389   1.408       .  A
C3388      H3393   1.078       .  S
C3389      C3390   1.427       .  A
C3390      N3391   1.439       .  S
N3391      H3395   1.045       .  S
N3391      H3396   1.040       .  S
N3394      H3397   1.044       .  S
N3394      H3398   1.046       .  S
C3399      C3400   1.411       .  A
C3399      C3404   1.411       .  A
C3399      H3406   1.081       .  S
C3400      C3401   1.427       .  A
C3401      C3402   1.407       .  A
C3401      N3408   1.438       .  S
C3402      C3403   1.408       .  A
C3402      H3407   1.081       .  S
C3403      C3404   1.417       .  A
C3404      N3405   1.437       .  S
N3405      H3409   1.045       .  S
N3405      H3410   1.045       .  S
N3408      H3411   1.041       .  S
N3408      H3412   1.044       .  S
C3413      C3414   1.410       .  A
C3413      C3418   1.410       .  A
C3413      H3420   1.081       .  S
C3414      C3415   1.418       .  A
C3415      C3416   1.409       .  A
C3415      N3422   1.432       .  S
C3416      C3417   1.408       .  A
C3416      H3421   1.081       .  S
C3417      C3418   1.418       .  A
C3418      N3419   1.438       .  S
N3419      H3423   1.045       .  S
N3419      H3424   1.045       .  S
N3422      H3425   1.045       .  S
N3422      H3426   1.046       .  S
C3427      C3428   1.409       .  A
C3427      C3432   1.411       .  A
C3427      H3434   1.081       .  S
C3428      C3429   1.429       .  A
C3429      C3430   1.407       .  A
C3429      N3436   1.437       .  S
C3430      C3431   1.406       .  A
C3430      H3435   1.083       .  S
C3431      C3432   1.419       .  A
C3432      N3433   1.437       .  S
N3433      H3437   1.045       .  S
N3433      H3438   1.046       .  S
N3436      H3439   1.040       .  S
N3436      H3440   1.044       .  S
C3441      C3442   1.401       .  A
C3441      C3446   1.402       .  A
C3441      H3448   1.084       .  S
C3443      N3450   1.439       .  S
C3444      C3445   1.399       .  A
C3444      H3449   1.084       .  S
C3445      C3446   1.416       .  A
C3446      N3447   1.438       .  S
N3447      H3451   1.046       .  S
N3447      H3452   1.043       .  S
N3450      H3453   1.042       .  S
N3450      H3454   1.046       .  S
C3455      C3456   1.403       .  A
C3455      C3460   1.405       .  A
C3455      H3462   1.083       .  S
C3457      N3464   1.439       .  S
C3458      H3463   1.084       .  S
C3459      C3460   1.408       .  A
C3460      N3461   1.437       .  S
N3461      H3465   1.046       .  S
N3461      H3466   1.046       .  S
N3464      H3467   1.042       .  S
N3464      H3468   1.046       .  S
C3469      C3470   1.412       .  A
C3469      C3474   1.411       .  A
C3469      H3476   1.081       .  S
C3470      C3471   1.430       .  A
C3471      C3472   1.405       .  A
C3471      N3478   1.439       .  S
C3472      C3473   1.406       .  A
C3472      H3477   1.081       .  S
C3473      C3474   1.415       .  A
C3474      N3475   1.432       .  S
N3475      H3479   1.045       .  S
N3475      H3480   1.046       .  S
N3478      H3481   1.038       .  S
N3478      H3482   1.046       .  S
C3483      C3484   1.407       .  A
C3483      C3488   1.407       .  A
C3483      H3490   1.081       .  S
C3484      C3485   1.417       .  A
C3485      C3486   1.409       .  A
C3485      N3492   1.438       .  S
C3486      C3487   1.410       .  A
C3486      H3491   1.080       .  S
C3487      C3488   1.429       .  A
C3488      N3489   1.439       .  S
N3489      H3493   1.046       .  S
N3489      H3494   1.039       .  S
N3492      H3495   1.045       .  S
N3492      H3496   1.045       .  S
C3497      C3498   1.401       .  A
C3497      H3504   1.083       .  S
C3499      C3500   1.402       .  A
C3499      N3506   1.432       .  S
C3500      C3501   1.402       .  A
C3500      H3505   1.084       .  S
C3501      C3502   1.412       .  A
C3502      N3503   1.432       .  S
N3503      H3508   1.044       .  S
N3506      H3509   1.044       .  S
N3506      H3510   1.046       .  S
C3511      C3516   1.397       .  A
C3511      H3518   1.084       .  S
C3513      N3520   1.431       .  S
C3514      C3515   1.403   1_556  A
C3514      H3519   1.083       .  S
C3516      N3517   1.431       .  S
N3517      H3521   1.043       .  S
N3517      H3522   1.046       .  S
N3520      H3523   1.046       .  S
N3520      H3524   1.044       .  S
C3525      C3526   1.408       .  A
C3525      C3530   1.411       .  A
C3525      H3532   1.083       .  S
C3526      C3527   1.419       .  A
C3527      C3528   1.408       .  A
C3527      N3534   1.438       .  S
C3528      C3529   1.408       .  A
C3528      H3533   1.081       .  S
C3529      C3530   1.429       .  A
C3530      N3531   1.438       .  S
N3531      H3535   1.045       .  S
N3531      H3536   1.040       .  S
N3534      H3537   1.046       .  S
N3534      H3538   1.046       .  S
C3539      C3540   1.407       .  A
C3539      C3544   1.408       .  A
C3539      H3546   1.082       .  S
C3540      C3541   1.418       .  A
C3541      C3542   1.409       .  A
C3541      N3548   1.437       .  S
C3542      C3543   1.410       .  A
C3542      H3547   1.080       .  S
C3543      C3544   1.429       .  A
C3544      N3545   1.438       .  S
N3545      H3549   1.046       .  S
N3545      H3550   1.039       .  S
N3548      H3551   1.046       .  S
N3548      H3552   1.045       .  S
