geometry optimzed in LAMMPS
_audit_creation_date              2020-11-30 
_audit_creation_method            'lammps2cif' 
_symmetry_space_group_name_H-M    'P1' 
_symmetry_Int_Tables_number       1 
_symmetry_cell_setting            triclinic 
loop_ 
_symmetry_equiv_pos_as_xyz 
  x,y,z 
_cell_length_a                    45.69472095 
_cell_length_b                    45.85679981538286 
_cell_length_c                    35.295250047360895 
_cell_angle_alpha                 89.7785440922807 
_cell_angle_beta                  89.77392513172643 
_cell_angle_gamma                 119.12409624740678 
loop_ 
_atom_site_label 
_atom_site_type_symbol 
_atom_site_fract_x 
_atom_site_fract_y 
_atom_site_fract_z 
_atom_site_charge 
C1          C  0.50351679  0.00169103  0.78819760     0.46800
H2          H  0.50384646  0.00104308  0.81966226    -0.02300
C3          C  0.00087340  0.50041896  0.71203402     0.46800
H4          H  0.00104849  0.50130382  0.68056975    -0.02300
C5          C  0.46963671  0.46636182  0.76862667    -0.16000
C6          C  0.50285141  0.03257983  0.77186190    -0.15700
C7          C  0.03193499  0.49991603  0.76788639    -0.16100
C8          C  0.47042855  0.46760206  0.72969494    -0.16100
C9          C  0.50193852  0.03315175  0.73280096    -0.15600
C10         C  0.03233128  0.50139325  0.72893465    -0.15900
O11         O  0.31408314  0.10092708  0.05637585    -0.77200
C12         C  0.27232534  0.16649321  0.07303036     0.83900
O13         O  0.28286742  0.12304163  0.92953487    -0.78300
O14         O  0.32980850  0.23575932  0.98403832    -0.79800
O15         O  0.40845742  0.20951227  0.04147733    -0.79600
O16         O  0.36905538  0.12711245  0.04563560    -0.78200
Zn17       Zn  0.29660605  0.12692627  0.02601465     1.55700
O18         O  0.37938991  0.23605289  0.05216919    -0.79600
Cd19       Cd  0.37584306  0.16689200  0.01248943     1.59700
Cd20       Cd  0.32620155  0.16700494  0.94531171     1.59600
O21         O  0.39804524  0.16473246  0.96255340    -0.79600
O22         O  0.33279032  0.16619516  0.00190057    -1.90100
Cd23       Cd  0.33507172  0.20669264  0.02481591     1.59900
O24         O  0.36688162  0.16888628  0.91639192    -0.79600
O25         O  0.29732495  0.19411232  0.06331305    -0.78200
C26         C  0.26366124  0.09753657  0.94978413     0.84300
C27         C  0.34296468  0.10354559  0.06085280     0.84000
O28         O  0.26803273  0.13864785  0.06046772    -0.77200
C29         C  0.40585782  0.23371367  0.05549640     0.84800
O30         O  0.26729416  0.09670389  0.98543221    -0.77300
C31         C  0.39227043  0.16679201  0.92763658     0.84900
C32         C  0.32625580  0.23433508  0.94826154     0.85200
O33         O  0.32419788  0.20996397  0.92883652    -0.79700
C34         C  0.35755835  0.35756785  0.84908687     0.04400
C35         C  0.35871646  0.32844480  0.86038576    -0.11700
C36         C  0.33189109  0.30251699  0.88010127     0.01900
C37         C  0.30350085  0.30544269  0.88842359    -0.10200
C38         C  0.30215776  0.33452169  0.87947482     0.04400
C39         C  0.32851982  0.35987420  0.85847483    -0.09700
H40         H  0.38099211  0.32630742  0.85573662     0.10000
H41         H  0.28249549  0.28513448  0.90296709     0.07600
H42         H  0.32644788  0.38157628  0.85049436     0.07400
O43         O  0.11660540  0.35226725  0.05076508    -0.77200
C44         C  0.22202363  0.38854994  0.06869260     0.83900
O45         O  0.16735541  0.37701192  0.92561171    -0.78300
O46         O  0.22977404  0.32312570  0.98350343    -0.79800
O47         O  0.12507258  0.25377616  0.04624049    -0.79600
O48         O  0.08625027  0.29757388  0.04172212    -0.78200
Zn49       Zn  0.15902927  0.36504376  0.02215775     1.55700
O50         O  0.17988315  0.27922182  0.05755501    -0.79600
Cd51       Cd  0.11873177  0.28680282  0.01253751     1.59700
Cd52       Cd  0.16821682  0.33342540  0.94352492     1.59600
O53         O  0.09712393  0.26230855  0.96357059    -0.79600
O54         O  0.16141539  0.32766813  0.00054528    -1.90100
Cd55       Cd  0.19833002  0.32332673  0.02548546     1.59900
O56         O  0.13045251  0.29173076  0.91553477    -0.79600
O57         O  0.22707316  0.36446582  0.05956762    -0.78200
C58         C  0.16556715  0.39924090  0.94575068     0.84300
C59         C  0.08985321  0.32470300  0.05545499     0.84000
O60         O  0.19675709  0.39043963  0.05708795    -0.77200
C61         C  0.15037752  0.25449595  0.06190040     0.84800
O62         O  0.16270733  0.39678355  0.98158574    -0.77300
C63         C  0.10424544  0.26625639  0.92832388     0.84900
C64         C  0.23393666  0.32972977  0.94810961     0.85200
O65         O  0.21412042  0.33620730  0.92881849    -0.79700
C66         C  0.13392817  0.13383939  0.14174692     0.04400
C67         C  0.13685026  0.16512800  0.13230542    -0.11700
C68         C  0.16576663  0.18964244  0.11366037     0.01900
C69         C  0.19168136  0.18289383  0.10511250    -0.10200
C70         C  0.18912716  0.15185665  0.11374553     0.04400
C71         C  0.16016540  0.12740228  0.13177952    -0.09700
H72         H  0.11665840  0.17023286  0.13906843     0.10000
H73         H  0.21316173  0.20143535  0.08937086     0.07600
H74         H  0.15845591  0.10357407  0.13863934     0.07400
C75         C  0.14295863  0.00146480  0.85280495     0.04400
C76         C  0.17071300  0.03197787  0.86346816    -0.11700
C77         C  0.19727993  0.03256784  0.88369214     0.01900
C78         C  0.19233094  0.49627193  0.89154833    -0.10200
C79         C  0.16484096  0.46612077  0.87996537     0.04400
C80         C  0.13975144  0.46703211  0.85801812    -0.09700
H81         H  0.17107787  0.05534649  0.85750961     0.10000
H82         H  0.21212653  0.49567255  0.90774306     0.07600
H83         H  0.11857307  0.44376962  0.84911794     0.07400
C84         C  0.99730632  0.36837270  0.13954176     0.04400
C85         C  0.46834270  0.34035885  0.12638846    -0.11700
C86         C  0.46828253  0.31698977  0.10084184     0.01900
C87         C  0.99762215  0.32212235  0.08812694    -0.10200
C88         C  0.02805153  0.34811279  0.10081160     0.04400
C89         C  0.02785203  0.37177958  0.12562323    -0.09700
H90         H  0.44465170  0.33636672  0.13783880     0.10000
H91         H  0.99775158  0.30630922  0.06556423     0.07600
H92         H  0.05150320  0.39302455  0.13338572     0.07400
C93         C  0.00116940  0.13630031  0.86075458     0.04400
C94         C  0.02911652  0.16639501  0.87247545    -0.11700
C95         C  0.02419571  0.19019255  0.89246575     0.01900
C96         C  0.99165964  0.18457951  0.89888873    -0.10200
C97         C  0.46271407  0.15610835  0.88667495     0.04400
C98         C  0.46761682  0.13216895  0.86770802    -0.09700
H99         H  0.05422309  0.17006901  0.86868128     0.10000
H100        H  0.98792410  0.20220698  0.91583714     0.07600
H101        H  0.44591710  0.10867709  0.86040589     0.07400
C102        C  0.35760468  0.49536333  0.13614410     0.04400
C103        C  0.35216052  0.02615865  0.13164711    -0.11700
C104        C  0.32370220  0.02196439  0.11185116     0.01900
C105        C  0.30120836  0.48654624  0.09587670    -0.10200
C106        C  0.30411287  0.45849275  0.10648447     0.04400
C107        C  0.33263703  0.46312115  0.12600119    -0.09700
H108        H  0.37212761  0.05097957  0.13810173     0.10000
H109        H  0.28019060  0.48347562  0.07891748     0.07600
H110        H  0.33504690  0.44153658  0.13394231     0.07400
O111        O  0.36617151  0.13030383  0.43622017    -0.77200
C112        C  0.40350082  0.23635184  0.44003466     0.83900
O113        O  0.37254232  0.15493986  0.56928316    -0.78300
O114        O  0.33729738  0.23330733  0.52880446    -0.79800
O115        O  0.26677461  0.14464977  0.43872375    -0.79600
O116        O  0.31096348  0.10211301  0.42911638    -0.78200
Zn117      Zn  0.37427197  0.16651990  0.47264518     1.55700
O118        O  0.29378249  0.19958506  0.44942597    -0.79600
Cd119      Cd  0.29546118  0.12737199  0.46645093     1.59700
Cd120      Cd  0.33069036  0.15783267  0.54932132     1.59600
O121        O  0.26476121  0.09353854  0.50703216    -0.79600
O122        O  0.33417369  0.16485641  0.49236770    -1.90100
Cd123      Cd  0.33590899  0.20821681  0.47978595     1.59900
O124        O  0.28642139  0.11437391  0.56370167    -0.79600
O125        O  0.37857077  0.24006639  0.44933538    -0.78200
C126        C  0.39754763  0.15757780  0.55018533     0.84300
C127        C  0.34024611  0.10654017  0.42167352     0.84000
O128        O  0.40441296  0.20971336  0.44738082    -0.77200
C129        C  0.26921122  0.17351211  0.43571004     0.84800
O130        O  0.39968715  0.16178902  0.51457149    -0.77300
C131        C  0.26373675  0.09195935  0.54313120     0.84900
C132        C  0.33374020  0.22578649  0.56394040     0.85200
O133        O  0.32969238  0.19784182  0.57622922    -0.79700
C134        C  0.36664142  0.35936600  0.64255237     0.04400
C135        C  0.37236264  0.33476313  0.62520949    -0.11700
C136        C  0.34647726  0.30743756  0.60664242     0.01900
C137        C  0.31524804  0.30569931  0.60287400    -0.10200
C138        C  0.30962030  0.33103031  0.61714004     0.04400
C139        C  0.33461452  0.35672438  0.63858848    -0.09700
H140        H  0.39693595  0.33675632  0.62551733     0.10000
H141        H  0.29583546  0.28552721  0.58675918     0.07600
H142        H  0.32915681  0.37513620  0.65085713     0.07400
O143        O  0.09458773  0.30137069  0.46142148    -0.77200
C144        C  0.16633053  0.26555992  0.44266360     0.83900
O145        O  0.13330449  0.28762358  0.58814689    -0.78300
O146        O  0.23983136  0.33280861  0.51839911    -0.79800
O147        O  0.19895852  0.39989003  0.45516717    -0.79600
O148        O  0.11749206  0.35666128  0.46445844    -0.78200
Zn149      Zn  0.12611827  0.28933036  0.49087344     1.55700
O150        O  0.23064527  0.37579356  0.44686257    -0.79600
Cd151      Cd  0.16152853  0.36923722  0.49223391     1.59700
Cd152      Cd  0.17346335  0.32972394  0.56346174     1.59600
O153        O  0.16450706  0.39667997  0.53937136    -0.79600
O154        O  0.16607776  0.32962117  0.50698025    -1.90100
Cd155      Cd  0.20632149  0.33348732  0.48036263     1.59900
O156        O  0.17746582  0.37314123  0.58736135    -0.79600
O157        O  0.19344537  0.29271618  0.44718223    -0.78200
C158        C  0.10727187  0.26360266  0.57343469     0.84300
C159        C  0.09418141  0.32845944  0.45373894     0.82000
O160        O  0.13872723  0.26041924  0.45772707    -0.77200
C161        C  0.22397929  0.39922235  0.44016343     0.84800
O162        O  0.10203866  0.26210567  0.53773715    -0.77300
C163        C  0.17214077  0.39601798  0.57393399     0.84900
C164        C  0.24077677  0.33015731  0.55419281     0.85200
O165        O  0.21759695  0.32849512  0.57589140    -0.79700
C166        C  0.14028977  0.00200989  0.64279498     0.04400
C167        C  0.13769325  0.47105517  0.63093527    -0.11700
C168        C  0.16342573  0.46922709  0.61154970     0.01900
C169        C  0.18976076  0.99821965  0.59892149    -0.10200
C170        C  0.19492796  0.02959067  0.61069719     0.04400
C171        C  0.17056562  0.03128535  0.63378139    -0.09700
H172        H  0.11386386  0.44846553  0.63450268     0.10000
H173        H  0.20846514  0.99633761  0.58171082     0.07600
H174        H  0.17483021  0.05533222  0.64374823     0.07400
C175        C  0.99761537  0.13986722  0.64984713     0.04400
C176        C  0.02677401  0.16622139  0.63298497    -0.11700
C177        C  0.02428614  0.18946340  0.60893022     0.01900
C178        C  0.99292595  0.18663608  0.60247898    -0.10200
C179        C  0.46474059  0.16192977  0.61750945     0.04400
C180        C  0.46713022  0.13911646  0.64190594    -0.09700
H181        H  0.05098126  0.16784706  0.63723902     0.10000
H182        H  0.99105426  0.20426474  0.58340918     0.07600
H183        H  0.44429453  0.11864216  0.65333880     0.07400
C184        C  0.50137826  0.37344168  0.36657875     0.04400
C185        C  0.03287301  0.37715976  0.38238403    -0.11700
C186        C  0.03200248  0.35199112  0.40636017     0.01900
C187        C  0.49956446  0.32412874  0.41535437    -0.10200
C188        C  0.46953359  0.32178544  0.40246745     0.04400
C189        C  0.47057810  0.34664994  0.37862309    -0.09700
H190        H  0.05679890  0.39772929  0.37357483     0.10000
H191        H  0.49856966  0.30620653  0.43604670     0.07600
H192        H  0.44724574  0.34515619  0.36959512     0.07400
C193        C  0.12928707  0.13065108  0.36357100     0.04400
C194        C  0.12472193  0.15683460  0.37773306    -0.11700
C195        C  0.14917375  0.18176064  0.40022370     0.01900
C196        C  0.17833477  0.18018780  0.40910565    -0.10200
C197        C  0.18352166  0.15437627  0.39513268     0.04400
C198        C  0.15876726  0.12962764  0.37252898    -0.09700
H199        H  0.10229200  0.15814321  0.37088770     0.10000
H200        H  0.19608906  0.19816405  0.42861099     0.07600
H201        H  0.16216208  0.10912043  0.36263892     0.07400
C202        C  0.35176738  0.99626518  0.35143217     0.04400
C203        C  0.34943583  0.02558769  0.35681236    -0.11700
C204        C  0.32205612  0.02427917  0.37670630     0.01900
C205        C  0.29725886  0.99378836  0.39104226    -0.10200
C206        C  0.30104335  0.46538862  0.38582518     0.04400
C207        C  0.32835893  0.46747815  0.36527623    -0.09700
H208        H  0.36859457  0.04917181  0.34533059     0.10000
H209        H  0.27758079  0.99382288  0.40811824     0.07600
H210        H  0.33025065  0.44504987  0.36119348     0.07400
C211        C  0.49771735  0.50305594  0.21082406     0.46800
H212        H  0.49866846  0.50285135  0.17939087    -0.02300
C213        C  0.49611349  0.50377787  0.28447342     0.46800
H214        H  0.49513887  0.50366820  0.31592996    -0.02300
C215        C  0.02538421  0.03131004  0.23038543    -0.16000
C216        C  0.46671723  0.50385084  0.22683009    -0.15700
C217        C  0.49745949  0.47254432  0.22944757    -0.16100
C218        C  0.02529230  0.03110412  0.26945728    -0.16100
C219        C  0.46569681  0.50387639  0.26585681    -0.15600
C220        C  0.49699196  0.47306559  0.26835163    -0.15900
C221        C  0.37758911  0.47432852  0.30358707    -0.12000
C222        C  0.38070667  0.99718924  0.33081171     0.10100
C223        C  0.41340410  0.02353007  0.33631635    -0.12000
C224        C  0.44051756  0.02440902  0.31673406    -0.12000
C225        C  0.43721526  0.50189932  0.28859470     0.10100
C226        C  0.40463164  0.47532944  0.28362363    -0.12000
H227        H  0.35271172  0.45377548  0.29856131     0.14100
H228        H  0.41805685  0.04350002  0.35580325     0.14100
H229        H  0.46509470  0.04547662  0.32045178     0.14100
H230        H  0.40010189  0.45553993  0.26391667     0.14100
C231        C  0.04400663  0.06791668  0.32630156    -0.12000
C232        C  0.05234596  0.05596528  0.29381677     0.10100
C233        C  0.08630115  0.06716028  0.28560076    -0.12000
C234        C  0.11137553  0.09126278  0.30829864    -0.12000
C235        C  0.10293465  0.10417593  0.34004383     0.10100
C236        C  0.06894755  0.09179642  0.34908525    -0.12000
H237        H  0.01817145  0.05911610  0.33398021     0.14100
H238        H  0.09346385  0.05743051  0.26151218     0.14100
H239        H  0.13733754  0.10021098  0.30061192     0.14100
H240        H  0.06158188  0.10049289  0.37393476     0.14100
C241        C  0.47858307  0.38943614  0.31039484    -0.12000
C242        C  0.50143528  0.39911886  0.34055605     0.10100
C243        C  0.02381155  0.43509342  0.34862783    -0.12000
C244        C  0.02152670  0.45871869  0.32524779    -0.12000
C245        C  0.49832049  0.44746574  0.29321934     0.10100
C246        C  0.47690917  0.41331502  0.28716815    -0.12000
H247        H  0.46185090  0.36328051  0.30480833     0.14100
H248        H  0.04158372  0.44365402  0.37167003     0.14100
H249        H  0.03812499  0.48503694  0.33017653     0.14100
H250        H  0.45859148  0.40505820  0.26470514     0.14100
C251        C  0.05242442  0.21392921  0.58514141    -0.15100
C252        C  0.08228329  0.23690370  0.59858340    -0.30300
H253        H  0.04667383  0.21534532  0.55555278     0.13900
H254        H  0.08762494  0.23717064  0.62858383     0.14500
C255        C  0.16869472  0.23947094  0.42083035    -0.15100
C256        C  0.14328038  0.20836055  0.41626949    -0.30300
H257        H  0.19340164  0.24571070  0.41006133     0.13900
H258        H  0.11806781  0.20211585  0.42504613     0.14500
C259        C  0.15662439  0.43775039  0.59326626    -0.15100
C260        C  0.17590282  0.42348135  0.59852739    -0.30300
H261        H  0.13564375  0.42660925  0.57381120     0.13900
H262        H  0.19534146  0.43293878  0.61991161     0.14500
C263        C  0.24585537  0.42725299  0.41521268    -0.15100
C264        C  0.27643836  0.43321807  0.40376029    -0.30300
H265        H  0.23689688  0.44454381  0.40803884     0.13900
H266        H  0.28442025  0.41487714  0.40962384     0.14500
C267        C  0.06533496  0.32674423  0.43283892    -0.15100
C268        C  0.06341812  0.35408946  0.42164465    -0.30300
H269        H  0.04466020  0.30197543  0.42740270     0.13900
H270        H  0.08506028  0.37871090  0.42480021     0.14500
C271        C  0.26960064  0.32798905  0.56948697    -0.15100
C272        C  0.27908828  0.33254091  0.60598505    -0.30300
H273        H  0.28472094  0.32352291  0.54889074     0.13900
H274        H  0.26630773  0.34004001  0.62654676     0.14500
C275        C  0.42629791  0.15712747  0.56787052    -0.15100
C276        C  0.43165222  0.15683439  0.60513205    -0.30300
H277        H  0.44569944  0.15919231  0.54829731     0.13900
H278        H  0.41241927  0.15301134  0.62580268     0.14500
C279        C  0.34493934  0.08257777  0.39799920    -0.15100
C280        C  0.31889254  0.05409218  0.38616380    -0.30300
H281        H  0.37015189  0.08607268  0.39539413     0.13900
H282        H  0.29371992  0.05027933  0.39081274     0.14500
C283        C  0.23520158  0.06243343  0.56046142    -0.15100
C284        C  0.22466835  0.06049141  0.59659199    -0.30300
H285        H  0.22105254  0.04161105  0.54157881     0.13900
H286        H  0.23648004  0.08215583  0.61485163     0.14500
C287        C  0.24223398  0.17730364  0.41745453    -0.15100
C288        C  0.21304677  0.15107545  0.40674319    -0.30300
H289        H  0.24586483  0.20245878  0.41506797     0.13900
H290        H  0.21022101  0.12613746  0.40767717     0.14500
C291        C  0.43692670  0.29400032  0.41526331    -0.15100
C292        C  0.43313663  0.26348341  0.42164766    -0.30300
H293        H  0.41612251  0.29878596  0.41991541     0.13900
H294        H  0.45348738  0.25847384  0.41488887     0.14500
C295        C  0.33282138  0.24982479  0.59085657    -0.15100
C296        C  0.35292610  0.28290218  0.58646933    -0.30300
H297        H  0.31409166  0.24040409  0.61332852     0.13900
H298        H  0.37319055  0.29223880  0.56576222     0.14500
C299        C  0.39901034  0.52151832  0.18872627    -0.12000
C300        C  0.38728923  0.49986544  0.15763240     0.10100
C301        C  0.40071793  0.98349694  0.15098639    -0.12000
C302        C  0.42707328  0.98454222  0.17179579    -0.12000
C303        C  0.44072813  0.50431909  0.20173612     0.10100
C304        C  0.42565782  0.52393310  0.21036207    -0.12000
H305        H  0.38700159  0.53590816  0.19692092     0.14100
H306        H  0.39203567  0.96775907  0.12618663     0.14100
H307        H  0.43808639  0.96974822  0.16229040     0.14100
H308        H  0.43414929  0.54085424  0.23411445     0.14100
C309        C  0.47165733  0.40182850  0.16001917    -0.12000
C310        C  0.99708616  0.39456672  0.16444847     0.10100
C311        C  0.02353813  0.41304837  0.18973556    -0.12000
C312        C  0.02385514  0.43871229  0.21147129    -0.12000
C313        C  0.49807206  0.44577703  0.20659190     0.10100
C314        C  0.47131620  0.42657178  0.18256790    -0.12000
H315        H  0.45096369  0.38844381  0.14088912     0.14100
H316        H  0.04398503  0.40769053  0.19292023     0.14100
H317        H  0.04462109  0.45287260  0.23032108     0.14100
H318        H  0.44968705  0.43012450  0.18184402     0.14100
C319        C  0.06315741  0.09186213  0.21375052    -0.12000
C320        C  0.05143220  0.05791767  0.20613468     0.10100
C321        C  0.06487909  0.04919390  0.17524019    -0.12000
C322        C  0.09081501  0.07387503  0.15354700    -0.12000
C323        C  0.10395370  0.10787683  0.16233846     0.10100
C324        C  0.08933770  0.11660696  0.19225199    -0.12000
H325        H  0.05254586  0.09921396  0.23686795     0.14100
H326        H  0.05600241  0.02320054  0.16855136     0.14100
H327        H  0.10091755  0.06628006  0.13014520     0.14100
H328        H  0.09885192  0.14250072  0.19985993     0.14100
C329        C  0.08095839  0.24010170  0.90206508    -0.15100
C330        C  0.05078017  0.21685030  0.91502996    -0.30300
H331        H  0.08791586  0.24031606  0.87256742     0.13900
H332        H  0.04366572  0.21851071  0.94405244     0.14500
C333        C  0.16972794  0.22207007  0.10027259    -0.15100
C334        C  0.14462504  0.22485207  0.08435898    -0.30300
H335        H  0.19505881  0.24293249  0.09800273     0.13900
H336        H  0.11947604  0.20359687  0.08470601     0.14500
C337        C  0.16819115  0.42992273  0.92896109    -0.15100
C338        C  0.16149105  0.43367991  0.89280340    -0.30300
H339        H  0.17484171  0.45050020  0.94843676     0.13900
H340        H  0.15169887  0.41261352  0.87359545     0.14500
C341        C  0.05985884  0.35099345  0.08644024    -0.15100
C342        C  0.06161004  0.32356128  0.07641448    -0.30300
H343        H  0.08145469  0.37566689  0.08290197     0.13900
H344        H  0.04057841  0.29888642  0.08187003     0.14500
C345        C  0.27859685  0.42460091  0.09450852    -0.15100
C346        C  0.24630210  0.41661964  0.09138448    -0.30300
H347        H  0.28686078  0.40713865  0.08549789     0.13900
H348        H  0.23823501  0.43392771  0.10156869     0.14500
C349        C  0.27402780  0.33889272  0.89453498    -0.15100
C350        C  0.26249807  0.32853495  0.93002434    -0.30300
H351        H  0.26380693  0.35148821  0.87740298     0.13900
H352        H  0.27509075  0.31856637  0.94762064     0.14500
C353        C  0.23666146  0.06700298  0.93279378    -0.15100
C354        C  0.22492661  0.06478540  0.89749033    -0.30300
H355        H  0.22515049  0.04509131  0.95112878     0.13900
H356        H  0.23404756  0.08695707  0.87975749     0.14500
C357        C  0.24750421  0.16831433  0.09797494    -0.15100
C358        C  0.21543121  0.14414025  0.10048472    -0.30300
H359        H  0.25487043  0.19250211  0.11052888     0.13900
H360        H  0.20783763  0.11947988  0.08919206     0.14500
C361        C  0.32362165  0.26189288  0.93014107    -0.15100
C362        C  0.33434361  0.27336159  0.89481375    -0.30300
H363        H  0.31454363  0.27505752  0.94808954     0.13900
H364        H  0.34685543  0.26287819  0.87793237     0.14500
C365        C  0.41703481  0.16847839  0.89987554    -0.15100
C366        C  0.42958194  0.14751906  0.90250425    -0.30300
H367        H  0.42798330  0.18950056  0.88028549     0.13900
H368        H  0.41742371  0.12561299  0.92076465     0.14500
C369        C  0.43638658  0.28836129  0.08782224    -0.15100
C370        C  0.43502124  0.26000865  0.07511856    -0.30300
H371        H  0.41410093  0.29114853  0.08735626     0.13900
H372        H  0.45667900  0.25633436  0.07758564     0.14500
C373        C  0.34687389  0.07836876  0.08313544    -0.15100
C374        C  0.32050907  0.05040234  0.09639530    -0.30300
H375        H  0.37198807  0.08169539  0.08575578     0.13900
H376        H  0.29539013  0.04651528  0.09150705     0.14500
C377        C  0.41014838  0.38018264  0.80818434    -0.12000
C378        C  0.38707386  0.38586073  0.82924826     0.10100
C379        C  0.39298999  0.41905700  0.83153637    -0.12000
C380        C  0.41998809  0.44511778  0.81224880    -0.12000
C381        C  0.44238273  0.43901155  0.79106473     0.10100
C382        C  0.43781495  0.40652121  0.79024134    -0.12000
H383        H  0.40685980  0.35535076  0.80487152     0.14100
H384        H  0.37698104  0.42527579  0.84829998     0.14100
H385        H  0.42302063  0.46999474  0.81336170     0.14100
H386        H  0.45550082  0.40136572  0.77539127     0.14100
C387        C  0.02840460  0.09154523  0.79066457    -0.12000
C388        C  0.50522936  0.05986675  0.79666597     0.10100
C389        C  0.48391911  0.05222803  0.82812262    -0.12000
C390        C  0.48338386  0.07772002  0.84916472    -0.12000
C391        C  0.00514467  0.10956991  0.84171235     0.10100
C392        C  0.02833060  0.11717074  0.81202104    -0.12000
H393        H  0.04590258  0.09798240  0.76724716     0.14100
H394        H  0.46679747  0.02653251  0.83565243     0.14100
H395        H  0.46607588  0.07093379  0.87281428     0.14100
H396        H  0.04529281  0.14287374  0.80420547     0.14100
C397        C  0.09308979  0.52491226  0.78307991    -0.12000
C398        C  0.05971079  0.50069590  0.79053575     0.10100
C399        C  0.05314897  0.47604879  0.81795933    -0.12000
C400        C  0.07958787  0.47496360  0.83671098    -0.12000
C401        C  0.11314942  0.49861816  0.82848230     0.10100
C402        C  0.11949420  0.52372093  0.80154234    -0.12000
H403        H  0.09876774  0.54450589  0.76243062     0.14100
H404        H  0.02760551  0.45715130  0.82417747     0.14100
H405        H  0.07371371  0.45572428  0.85788961     0.14100
H406        H  0.14578373  0.04465007  0.79748981     0.14100
C407        C  0.41953089  0.44486812  0.68868741    -0.12000
C408        C  0.44513250  0.44100567  0.70546530     0.10100
C409        C  0.44612010  0.41129813  0.69990269    -0.12000
C410        C  0.42055858  0.38481483  0.68019631    -0.12000
C411        C  0.39415658  0.38798241  0.66366799     0.10100
C412        C  0.39454725  0.41885069  0.66763391    -0.12000
H413        H  0.41877829  0.46796481  0.69209560     0.14100
H414        H  0.46640607  0.40832505  0.71152710     0.14100
H415        H  0.42144971  0.36172603  0.67866857     0.14100
H416        H  0.37576436  0.42327253  0.65440714     0.14100
C417        C  0.01954329  0.07291074  0.67925988    -0.12000
C418        C  0.99949537  0.05909305  0.71166180     0.10100
C419        C  0.47782615  0.07150933  0.72089109    -0.12000
C420        C  0.47800782  0.09831717  0.70162244    -0.12000
C421        C  0.99906290  0.11276755  0.67187852     0.10100
C422        C  0.01955761  0.09956626  0.65976153    -0.12000
H423        H  0.03546382  0.06334550  0.66901874     0.14100
H424        H  0.46086849  0.06039363  0.74468636     0.14100
H425        H  0.46145315  0.10739960  0.71144309     0.14100
H426        H  0.03511692  0.10937010  0.63467818     0.14100
C427        C  0.09368197  0.47546703  0.69072459    -0.12000
C428        C  0.11340182  0.00287039  0.66599829     0.10100
C429        C  0.10578138  0.02898228  0.66216448    -0.12000
C430        C  0.07929522  0.02846641  0.68283533    -0.12000
C431        C  0.05985253  0.00183089  0.70747346     0.10100
C432        C  0.06642149  0.47470647  0.70964532    -0.12000
H433        H  0.09897214  0.45517787  0.69561341     0.14100
H434        H  0.11997777  0.04958643  0.64288609     0.14100
H435        H  0.07468984  0.04933078  0.68035707     0.14100
H436        H  0.05135378  0.45394261  0.72843689     0.14100
C437        C  0.49910997  0.49684436  0.78706149     0.46800
H438        H  0.49880298  0.49589162  0.81852729    -0.02300
C439        C  0.00224741  0.00239584  0.71472937     0.46800
H440        H  0.00222870  0.00318853  0.68326945    -0.02300
C441        C  0.47337967  0.97123334  0.77068972    -0.16000
C442        C  0.49809734  0.52755690  0.77078366    -0.15700
C443        C  0.03297191  0.00054644  0.77028022    -0.16100
C444        C  0.47334442  0.97195441  0.73172022    -0.16100
C445        C  0.49810642  0.52859352  0.73168403    -0.15600
C446        C  0.03320442  0.00212887  0.73136135    -0.15900
O447        O  0.31574292  0.59894821  0.05309208    -0.77200
C448        C  0.27362554  0.66772658  0.06160448     0.83900
O449        O  0.28414982  0.61479950  0.92576453    -0.78300
O450        O  0.33762545  0.73303249  0.96643346    -0.79800
O451        O  0.40835855  0.70832970  0.04042656    -0.79600
O452        O  0.37099149  0.62604484  0.04397811    -0.78200
Zn453      Zn  0.29823715  0.62458326  0.02190679     1.55700
O454        O  0.37882904  0.73503577  0.04419434    -0.79600
Cd455      Cd  0.37827547  0.66558924  0.01022367     1.59700
Cd456      Cd  0.32907076  0.65798711  0.93887514     1.59600
O457        O  0.40331369  0.66354701  0.96266913    -0.79600
O458        O  0.33486091  0.66251489  0.99576282    -1.90100
Cd459      Cd  0.33708797  0.70500223  0.01253047     1.59900
O460        O  0.36891439  0.65391130  0.91389010    -0.79600
O461        O  0.29679517  0.69439401  0.04681968    -0.78200
C462        C  0.26346348  0.59132095  0.94742454     0.84300
C463        C  0.34474329  0.60201429  0.05833155     0.84000
O464        O  0.27103998  0.63916774  0.05530910    -0.77200
C465        C  0.40476123  0.73269442  0.05186964     0.84800
O466        O  0.26689288  0.59244183  0.98327679    -0.77300
C467        C  0.39642915  0.65775940  0.92758391     0.84900
C468        C  0.33335881  0.72763738  0.93095549     0.85200
O469        O  0.32853527  0.70022426  0.91619586    -0.79700
C470        C  0.36726380  0.86493389  0.86104024     0.04400
C471        C  0.37182549  0.83901249  0.87686724    -0.11700
C472        C  0.34580636  0.81227943  0.89655159     0.01900
C473        C  0.31562113  0.81230407  0.90292467    -0.10200
C474        C  0.31115417  0.83898345  0.89039311     0.04400
C475        C  0.33634848  0.86431362  0.86797787    -0.09700
H476        H  0.39564365  0.83946825  0.87440223     0.10000
H477        H  0.29607160  0.79205157  0.91919737     0.07600
H478        H  0.33187398  0.88379277  0.85686877     0.07400
O479        O  0.11571539  0.85481429  0.04628912    -0.77200
C480        C  0.22035070  0.89168639  0.07438148     0.83900
O481        O  0.17643848  0.88385115  0.92743416    -0.78300
O482        O  0.23455862  0.82856873  0.98966059    -0.79800
O483        O  0.12807023  0.75716064  0.04714174    -0.79600
O484        O  0.08767399  0.79981247  0.03825219    -0.78200
Zn485      Zn  0.16059534  0.86876703  0.02275054     1.55700
O486        O  0.18239943  0.78347754  0.06092793    -0.79600
Cd487      Cd  0.12234438  0.79000786  0.01222158     1.59700
Cd488      Cd  0.17431957  0.83893436  0.94559172     1.59600
O489        O  0.10315733  0.76566721  0.96230616    -0.79600
O490        O  0.16485830  0.83193706  0.00213837    -1.90100
Cd491      Cd  0.20103114  0.82797639  0.02946643     1.59900
O492        O  0.13555786  0.79965736  0.91603314    -0.79600
O493        O  0.22697782  0.86869886  0.06488361    -0.78200
C494        C  0.17376016  0.90582640  0.94705867     0.84300
C495        C  0.08936980  0.82673326  0.05018830     0.84000
O496        O  0.19510300  0.89301476  0.06163633    -0.77200
C497        C  0.15307626  0.75822420  0.06398123     0.84800
O498        O  0.16825550  0.90240147  0.98253274    -0.77300
C499        C  0.11029689  0.77257865  0.92736174     0.84900
C500        C  0.23936946  0.83371780  0.95406273     0.85200
O501        O  0.21974556  0.83921180  0.93304449    -0.79700
C502        C  0.13831152  0.63643035  0.14112264     0.04400
C503        C  0.14082538  0.66775055  0.13248895    -0.11700
C504        C  0.16880499  0.69228488  0.11253494     0.01900
C505        C  0.19405210  0.68542586  0.10115302    -0.10200
C506        C  0.19219815  0.65453539  0.10895437     0.04400
C507        C  0.16423238  0.63015056  0.12884888    -0.09700
H508        H  0.12101759  0.67295182  0.14083680     0.10000
H509        H  0.21434115  0.70393589  0.08400598     0.07600
H510        H  0.16302200  0.60645899  0.13513991     0.07400
C511        C  0.14134110  0.49774514  0.84873005     0.04400
C512        C  0.16933041  0.52769640  0.86050859    -0.11700
C513        C  0.19464140  0.52713004  0.88233966     0.01900
C514        C  0.19653363  0.00231959  0.89246888    -0.10200
C515        C  0.16894713  0.97152548  0.88275421     0.04400
C516        C  0.14246802  0.97130328  0.86239240    -0.09700
H517        H  0.17072811  0.55149971  0.85432565     0.10000
H518        H  0.21752885  0.00280461  0.90716580     0.07600
H519        H  0.12131878  0.94762281  0.85452441     0.07400
C520        C  0.99428317  0.86768720  0.13382206     0.04400
C521        C  0.46465876  0.83984276  0.12302963    -0.11700
C522        C  0.46477638  0.81669245  0.09724408     0.01900
C523        C  0.99458992  0.82169418  0.08183805    -0.10200
C524        C  0.02503401  0.84808857  0.09392111     0.04400
C525        C  0.02476631  0.87155573  0.11903919    -0.09700
H526        H  0.44093959  0.83558327  0.13468403     0.10000
H527        H  0.99457522  0.80570307  0.05940007     0.07600
H528        H  0.04838147  0.89295937  0.12655795     0.07400
C529        C  0.00637887  0.63755928  0.85999166     0.04400
C530        C  0.03833330  0.66356357  0.86997810    -0.11700
C531        C  0.04178713  0.69109566  0.89035845     0.01900
C532        C  0.01323621  0.69229243  0.90222909    -0.10200
C533        C  0.48094752  0.66691840  0.89311507     0.04400
C534        C  0.47741989  0.63934522  0.87194315    -0.09700
H535        H  0.06064581  0.66211253  0.86270369     0.10000
H536        H  0.01609721  0.71279149  0.91996671     0.07600
H537        H  0.45266457  0.61860090  0.86686420     0.07400
C538        C  0.35524782  0.99820449  0.14236579     0.04400
C539        C  0.35413099  0.52313134  0.12558660    -0.11700
C540        C  0.32615322  0.51884534  0.10475780     0.01900
C541        C  0.29794181  0.98967435  0.10435676    -0.10200
C542        C  0.30069461  0.96153677  0.11494998     0.04400
C543        C  0.32952520  0.96602943  0.13350851    -0.09700
H544        H  0.37341344  0.54793572  0.13321854     0.10000
H545        H  0.27664904  0.98668762  0.08801466     0.07600
H546        H  0.33179112  0.94433729  0.14135215     0.07400
O547        O  0.36799431  0.63094906  0.44187192    -0.77200
C548        C  0.40356712  0.73679013  0.44083680     0.83900
O549        O  0.37592443  0.66067923  0.57388545    -0.78300
O550        O  0.33960526  0.73672779  0.53052888    -0.79800
O551        O  0.26689116  0.64416418  0.44466200    -0.79600
O552        O  0.31292765  0.60334262  0.43358814    -0.78200
Zn553      Zn  0.37597390  0.66835077  0.47670972     1.55700
O554        O  0.29378712  0.69939836  0.45347063    -0.79600
Cd555      Cd  0.29732897  0.62835647  0.47141853     1.59700
Cd556      Cd  0.33286262  0.66135219  0.55371143     1.59600
O557        O  0.26850215  0.59436636  0.51285140    -0.79600
O558        O  0.33589791  0.66680129  0.49647659    -1.90100
Cd559      Cd  0.33699692  0.70966566  0.48258044     1.59900
O560        O  0.28952350  0.61683886  0.56919536    -0.79600
O561        O  0.37869896  0.74057170  0.45023831    -0.78200
C562        C  0.40110699  0.66364722  0.55484233     0.84300
C563        C  0.34217925  0.60737065  0.42686135     0.84000
O564        O  0.40493136  0.71056217  0.44915478    -0.77200
C565        C  0.26895265  0.67283263  0.44099743     0.84800
O566        O  0.40267397  0.66654328  0.51905887    -0.77300
C567        C  0.26761496  0.59328356  0.54897154     0.84900
C568        C  0.33562133  0.72983914  0.56582960     0.85200
O569        O  0.33103641  0.70188792  0.57893465    -0.79700
C570        C  0.36979597  0.86468253  0.64327270     0.04400
C571        C  0.37509282  0.83968210  0.62630220    -0.11700
C572        C  0.34903283  0.81262195  0.60744288     0.01900
C573        C  0.31801712  0.81144331  0.60369979    -0.10200
C574        C  0.31277975  0.83706195  0.61803180     0.04400
C575        C  0.33814785  0.86278115  0.63908862    -0.09700
H576        H  0.39948761  0.84123369  0.62739013     0.10000
H577        H  0.29837503  0.79134339  0.58772297     0.07600
H578        H  0.33337363  0.88174527  0.65114304     0.07400
O579        O  0.09384712  0.79892614  0.46238091    -0.77200
C580        C  0.16777717  0.76602591  0.44499243     0.83900
O581        O  0.13423558  0.78773920  0.58959878    -0.78300
O582        O  0.24055622  0.83562012  0.52047757    -0.79800
O583        O  0.19746884  0.89965548  0.45676759    -0.79600
O584        O  0.11618590  0.85417137  0.46333808    -0.78200
Zn585      Zn  0.12636905  0.78871249  0.49239568     1.55700
O586        O  0.22956959  0.87600871  0.44851320    -0.79600
Cd587      Cd  0.15971372  0.86801854  0.49260388     1.59700
Cd588      Cd  0.17331518  0.83061519  0.56489401     1.59600
O589        O  0.16019469  0.89476325  0.53912420    -0.79600
O590        O  0.16567077  0.82951752  0.50837076    -1.90100
Cd591      Cd  0.20629314  0.83408715  0.48224735     1.59900
O592        O  0.17398516  0.87277988  0.58796163    -0.79600
O593        O  0.19473072  0.79329146  0.44966895    -0.78200
C594        C  0.10839242  0.76338684  0.57502259     0.84300
C595        C  0.09309230  0.82558936  0.45341452     0.82000
O596        O  0.13999013  0.76066579  0.45966169    -0.77200
C597        C  0.22265951  0.89926399  0.44191865     0.84800
O598        O  0.10298185  0.76162274  0.53936265    -0.77300
C599        C  0.16736131  0.89459098  0.57393468     0.84900
C600        C  0.24228857  0.83437672  0.55631868     0.85200
O601        O  0.21902970  0.83248453  0.57810226    -0.79700
C602        C  0.14210543  0.50164348  0.64483851     0.04400
C603        C  0.13493883  0.97129966  0.62824228    -0.11700
C604        C  0.15974457  0.96930145  0.60715365     0.01900
C605        C  0.19367038  0.49837057  0.60445645    -0.10200
C606        C  0.19799923  0.52970188  0.61536656     0.04400
C607        C  0.17254538  0.53107715  0.63675511    -0.09700
H608        H  0.11120062  0.94880815  0.63277977     0.10000
H609        H  0.21309799  0.49672043  0.58846350     0.07600
H610        H  0.17612977  0.55505820  0.64608349     0.07400
C611        C  0.99720975  0.63976689  0.65041519     0.04400
C612        C  0.02683526  0.66572525  0.63390586    -0.11700
C613        C  0.02544353  0.69023331  0.61112919     0.01900
C614        C  0.99480062  0.68936066  0.60584881    -0.10200
C615        C  0.46723726  0.66465522  0.62210864     0.04400
C616        C  0.46812031  0.64001080  0.64479209    -0.09700
H617        H  0.05056438  0.66612707  0.63732391     0.10000
H618        H  0.99382837  0.70800856  0.58769783     0.07600
H619        H  0.44470176  0.61977204  0.65535791     0.07400
C620        C  0.50198918  0.87283472  0.36691930     0.04400
C621        C  0.03206824  0.87305995  0.37984728    -0.11700
C622        C  0.03087103  0.84782835  0.40393768     0.01900
C623        C  0.49970081  0.82369002  0.41629392    -0.10200
C624        C  0.46983775  0.82183111  0.40361041     0.04400
C625        C  0.47111249  0.84665826  0.37964201    -0.09700
H626        H  0.05610998  0.89347157  0.37107209     0.10000
H627        H  0.49842504  0.80567260  0.43703744     0.07600
H628        H  0.44786687  0.84547883  0.37083319     0.07400
C629        C  0.12986141  0.63109619  0.36642957     0.04400
C630        C  0.12591411  0.65784516  0.37981562    -0.11700
C631        C  0.14997493  0.68210898  0.40316189     0.01900
C632        C  0.17821037  0.67947879  0.41362334    -0.10200
C633        C  0.18303215  0.65329311  0.40021277     0.04400
C634        C  0.15853157  0.62899375  0.37686624    -0.09700
H635        H  0.10427311  0.66013305  0.37171227     0.10000
H636        H  0.19557903  0.69706833  0.43372512     0.07600
H637        H  0.16156774  0.60817677  0.36736216     0.07400
C638        C  0.35367742  0.49834386  0.35100795     0.04400
C639        C  0.35150460  0.52754224  0.35848516    -0.11700
C640        C  0.32420768  0.52563390  0.37926292     0.01900
C641        C  0.29927635  0.49464660  0.39233820    -0.10200
C642        C  0.29919450  0.96441800  0.38639398     0.04400
C643        C  0.32653630  0.96587748  0.36661195    -0.09700
H644        H  0.37065408  0.55150466  0.34786227     0.10000
H645        H  0.27958334  0.49406830  0.40996913     0.07600
H646        H  0.32857102  0.94340340  0.36388534     0.07400
C647        C  0.49458196  0.00098435  0.21183662     0.46800
H648        H  0.49487306  0.00089817  0.18037695    -0.02300
C649        C  0.49446451  0.00143041  0.28553247     0.46800
H650        H  0.49406694  0.00121066  0.31700809    -0.02300
C651        C  0.02799156  0.53426071  0.23005546    -0.16000
C652        C  0.46408606  0.00190647  0.22892027    -0.15700
C653        C  0.49464884  0.97041387  0.22978942    -0.16100
C654        C  0.02672423  0.53442139  0.26908617    -0.16100
C655        C  0.46372467  0.00152321  0.26790266    -0.15600
C656        C  0.49515129  0.97089727  0.26869966    -0.15900
C657        C  0.37586241  0.97148909  0.30564353    -0.12000
C658        C  0.38251026  0.49980786  0.32920318     0.10100
C659        C  0.41525729  0.52629625  0.33418550    -0.12000
C660        C  0.44224812  0.52729248  0.31408664    -0.12000
C661        C  0.43548586  0.99906839  0.29121238     0.10100
C662        C  0.40299144  0.97242510  0.28608203    -0.12000
H663        H  0.35099374  0.95100819  0.30045908     0.14100
H664        H  0.42009962  0.54618094  0.35384871     0.14100
H665        H  0.46687374  0.54845957  0.31765067     0.14100
H666        H  0.39857981  0.95269750  0.26634388     0.14100
C667        C  0.04495390  0.57163018  0.32552429    -0.12000
C668        C  0.05354148  0.55895299  0.29389680     0.10100
C669        C  0.08744136  0.56870717  0.28728197    -0.12000
C670        C  0.11232292  0.59193112  0.31091808    -0.12000
C671        C  0.10369425  0.60538830  0.34199032     0.10100
C672        C  0.06966479  0.59456961  0.34927144    -0.12000
H673        H  0.01910105  0.56401743  0.33185846     0.14100
H674        H  0.09470424  0.55839649  0.26384024     0.14100
H675        H  0.13830105  0.59973969  0.30451327     0.14100
H676        H  0.06205928  0.60372544  0.37352355     0.14100
C677        C  0.47856932  0.88797130  0.31074404    -0.12000
C678        C  0.50205502  0.89810963  0.34029971     0.10100
C679        C  0.02389616  0.93137102  0.34593575    -0.12000
C680        C  0.02150875  0.95512066  0.32293090    -0.12000
C681        C  0.49763547  0.94567779  0.29300183     0.10100
C682        C  0.47623737  0.91147277  0.28754591    -0.12000
H683        H  0.46168976  0.86172916  0.30576864     0.14100
H684        H  0.04188351  0.93979123  0.36875962     0.14100
H685        H  0.03822508  0.98140010  0.32791615     0.14100
H686        H  0.45734367  0.90290092  0.26569767     0.14100
C687        C  0.05375169  0.71374173  0.58698514    -0.15100
C688        C  0.08359487  0.73679221  0.60032819    -0.30300
H689        H  0.04802333  0.71471104  0.55729465     0.13900
H690        H  0.08882025  0.73748617  0.63041369     0.14500
C691        C  0.17032705  0.73992012  0.42357373    -0.15100
C692        C  0.14453474  0.70915987  0.41838666    -0.30300
H693        H  0.19517212  0.74570089  0.41379435     0.13900
H694        H  0.11926312  0.70349499  0.42612722     0.14500
C695        C  0.15263107  0.93780134  0.58903128    -0.15100
C696        C  0.16938561  0.92156361  0.59811182    -0.30300
H697        H  0.13460814  0.92898802  0.56608989     0.13900
H698        H  0.18607882  0.92941252  0.62230999     0.14500
C699        C  0.24441655  0.92727139  0.41707715    -0.15100
C700        C  0.27474755  0.93282585  0.40529252    -0.30300
H701        H  0.23540625  0.94450779  0.40988715     0.13900
H702        H  0.28258238  0.91439656  0.41130232     0.14500
C703        C  0.06413694  0.82304829  0.43199822    -0.15100
C704        C  0.06218515  0.85008378  0.41968105    -0.30300
H705        H  0.04351023  0.79811690  0.42724874     0.13900
H706        H  0.08382998  0.87476885  0.42231916     0.14500
C707        C  0.27209489  0.83384513  0.57128273    -0.15100
C708        C  0.28203483  0.83852998  0.60760272    -0.30300
H709        H  0.28735960  0.82985016  0.55041330     0.13900
H710        H  0.26911531  0.84541891  0.62863443     0.14500
C711        C  0.43063816  0.66489640  0.57266456    -0.15100
C712        C  0.43475938  0.66130075  0.60966765    -0.30300
H713        H  0.45087335  0.66923242  0.55315457     0.13900
H714        H  0.41433473  0.65436294  0.62975638     0.14500
C715        C  0.34695609  0.58338841  0.40314375    -0.15100
C716        C  0.32100538  0.55514496  0.39051372    -0.30300
H717        H  0.37217307  0.58689846  0.40053012     0.13900
H718        H  0.29580843  0.55123106  0.39521808     0.14500
C719        C  0.24010211  0.56292729  0.56654141    -0.15100
C720        C  0.22784415  0.56098658  0.60185493    -0.30300
H721        H  0.22760578  0.54154061  0.54796502     0.13900
H722        H  0.23784626  0.58312126  0.61943397     0.14500
C723        C  0.24148693  0.67604263  0.42311363    -0.15100
C724        C  0.21224629  0.64970609  0.41262900    -0.30300
H725        H  0.24512338  0.70116101  0.42017578     0.13900
H726        H  0.20935159  0.62475524  0.41386070     0.14500
C727        C  0.43714851  0.79439333  0.41647740    -0.15100
C728        C  0.43276751  0.76352391  0.42146488    -0.30300
H729        H  0.41692100  0.79975091  0.42254533     0.13900
H730        H  0.45268710  0.75818534  0.41358191     0.14500
C731        C  0.33469292  0.75453340  0.59195690    -0.15100
C732        C  0.35499565  0.78762290  0.58730641    -0.30300
H733        H  0.31596239  0.74548400  0.61443362     0.13900
H734        H  0.37531739  0.79664393  0.56671184     0.14500
C735        C  0.39808946  0.02329733  0.19370027    -0.12000
C736        C  0.38536329  0.00214906  0.16232664     0.10100
C737        C  0.40383155  0.48206430  0.14746997    -0.12000
C738        C  0.43051695  0.48463975  0.16899317    -0.12000
C739        C  0.43823945  0.00367434  0.20483721     0.10100
C740        C  0.42447187  0.02423668  0.21459713    -0.12000
H741        H  0.38696196  0.03827257  0.20275422     0.14100
H742        H  0.39605213  0.46605755  0.12285682     0.14100
H743        H  0.44263655  0.47070831  0.16015224     0.14100
H744        H  0.43377187  0.04074016  0.23867122     0.14100
C745        C  0.46803995  0.90080990  0.15877349    -0.12000
C746        C  0.99420318  0.89334814  0.15987818     0.10100
C747        C  0.02108919  0.91163207  0.18475179    -0.12000
C748        C  0.02148751  0.93665660  0.20777866    -0.12000
C749        C  0.49485405  0.94384406  0.20626255     0.10100
C750        C  0.46794114  0.92519770  0.18218503    -0.12000
H751        H  0.44723157  0.88779093  0.13967074     0.14100
H752        H  0.04181657  0.90656309  0.18669987     0.14100
H753        H  0.04259287  0.95064551  0.22626593     0.14100
H754        H  0.44646934  0.92904555  0.18194222     0.14100
C755        C  0.06704545  0.59467490  0.21332716    -0.12000
C756        C  0.05514717  0.56060700  0.20626812     0.10100
C757        C  0.06949005  0.55162089  0.17645207    -0.12000
C758        C  0.09597927  0.57612030  0.15499418    -0.12000
C759        C  0.10886373  0.61031508  0.16282540     0.10100
C760        C  0.09372240  0.61921112  0.19209788    -0.12000
H761        H  0.05598468  0.60232748  0.23568211     0.14100
H762        H  0.06064967  0.52555050  0.17022109     0.14100
H763        H  0.10630997  0.56817818  0.13216417     0.14100
H764        H  0.10296350  0.64514469  0.19927963     0.14100
C765        C  0.08718553  0.74860289  0.89972753    -0.15100
C766        C  0.07447867  0.71569236  0.90572506    -0.30300
H767        H  0.07715520  0.75764971  0.87755055     0.13900
H768        H  0.08549567  0.70688792  0.92705397     0.14500
C769        C  0.17255482  0.72508180  0.10087753    -0.15100
C770        C  0.14732671  0.72829851  0.08600185    -0.30300
H771        H  0.19789097  0.74591528  0.09846672     0.13900
H772        H  0.12218033  0.70700752  0.08623334     0.14500
C773        C  0.17808146  0.93709620  0.92997658    -0.15100
C774        C  0.16695876  0.93956043  0.89551172    -0.30300
H775        H  0.18783882  0.95852376  0.94867819     0.13900
H776        H  0.15366591  0.91737738  0.87827158     0.14500
C777        C  0.05705011  0.85157240  0.07919134    -0.15100
C778        C  0.05953435  0.82465965  0.06850600    -0.30300
H779        H  0.07868355  0.87637502  0.07710980     0.13900
H780        H  0.03856670  0.79972294  0.07266071     0.14500
C781        C  0.27541858  0.92766892  0.10283842    -0.15100
C782        C  0.24319083  0.91942829  0.09844996    -0.30300
H783        H  0.28408582  0.91041524  0.09422215     0.13900
H784        H  0.23449665  0.93638412  0.10808202     0.14500
C785        C  0.28102660  0.84133381  0.90264829    -0.15100
C786        C  0.26864802  0.83226382  0.93810010    -0.30300
H787        H  0.27042333  0.85235547  0.88362341     0.13900
H788        H  0.28141546  0.82390370  0.95762624     0.14500
C789        C  0.23499513  0.56103046  0.93161357    -0.15100
C790        C  0.22306433  0.55884251  0.89632228    -0.30300
H791        H  0.22273000  0.53960425  0.95053136     0.13900
H792        H  0.23316493  0.58086174  0.87820719     0.14500
C793        C  0.24946562  0.67140568  0.08601508    -0.15100
C794        C  0.21810474  0.64689739  0.09343636    -0.30300
H795        H  0.25722171  0.69663925  0.09535914     0.13900
H796        H  0.21064798  0.62136395  0.08550711     0.14500
C797        C  0.33284270  0.75373794  0.90666544    -0.15100
C798        C  0.35132221  0.78635826  0.91504496    -0.30300
H799        H  0.31608493  0.74611476  0.88253639     0.13900
H800        H  0.36960290  0.79417185  0.93766978     0.14500
C801        C  0.42142746  0.65541499  0.90248852    -0.15100
C802        C  0.45309037  0.66718063  0.91454194    -0.30300
H803        H  0.41424314  0.64491936  0.87433123     0.13900
H804        H  0.45989937  0.67955978  0.94185510     0.14500
C805        C  0.43313480  0.78773981  0.08414161    -0.15100
C806        C  0.43237971  0.75919963  0.07329883    -0.30300
H807        H  0.41097050  0.79057025  0.08146249     0.13900
H808        H  0.45402122  0.75584188  0.07817990     0.14500
C809        C  0.34868604  0.57667614  0.08019527    -0.15100
C810        C  0.32242670  0.54725817  0.09019193    -0.30300
H811        H  0.37401954  0.58110296  0.08456839     0.13900
H812        H  0.29730612  0.54248418  0.08331130     0.14500
C813        C  0.41916871  0.88746923  0.81898562    -0.12000
C814        C  0.39491068  0.89263986  0.83822411     0.10100
C815        C  0.39767536  0.92463913  0.83542535    -0.12000
C816        C  0.42303588  0.94998264  0.81341958    -0.12000
C817        C  0.44676512  0.94437034  0.79432491     0.10100
C818        C  0.44511991  0.91320135  0.79816548    -0.12000
H819        H  0.41815453  0.86342764  0.81946796     0.14100
H820        H  0.38051624  0.93047259  0.85040066     0.14100
H821        H  0.42401352  0.97398571  0.81114245     0.14100
H822        H  0.46391607  0.90865964  0.78497294     0.14100
C823        C  0.02609643  0.58832253  0.78770122    -0.12000
C824        C  0.50102409  0.55529806  0.79524847     0.10100
C825        C  0.47847620  0.54940922  0.82522333    -0.12000
C826        C  0.47969028  0.57616377  0.84575169    -0.12000
C827        C  0.00386850  0.60893659  0.83746202     0.10100
C828        C  0.02727905  0.61473764  0.80838184    -0.12000
H829        H  0.04443080  0.59368224  0.76541770     0.14100
H830        H  0.45951044  0.52425005  0.83226532     0.14100
H831        H  0.46202785  0.57089663  0.86874012     0.14100
H832        H  0.04639879  0.63988409  0.80119685     0.14100
C833        C  0.09395715  0.02616463  0.78557831    -0.12000
C834        C  0.06077347  0.00158487  0.79295972     0.10100
C835        C  0.05440414  0.97752815  0.82111910    -0.12000
C836        C  0.08099162  0.97735478  0.84062877    -0.12000
C837        C  0.11440865  0.00139094  0.83240692     0.10100
C838        C  0.12045534  0.02590112  0.80478127    -0.12000
H839        H  0.09942603  0.04540187  0.76450271     0.14100
H840        H  0.02894249  0.95847981  0.82740252     0.14100
H841        H  0.07538089  0.95854215  0.86227100     0.14100
H842        H  0.14492022  0.54223750  0.79431555     0.14100
C843        C  0.42500576  0.95069031  0.68679286    -0.12000
C844        C  0.44766725  0.94506169  0.70796248     0.10100
C845        C  0.44606056  0.91379580  0.70599672    -0.12000
C846        C  0.42088141  0.88784330  0.68522243    -0.12000
C847        C  0.39726667  0.89283815  0.66473547     0.10100
C848        C  0.40012867  0.92492260  0.66531137    -0.12000
H849        H  0.42637317  0.97494113  0.68720772     0.14100
H850        H  0.46435142  0.90940792  0.72053655     0.14100
H851        H  0.41971693  0.86371051  0.68578454     0.14100
H852        H  0.38327549  0.93029895  0.64904999     0.14100
C853        C  0.01780200  0.57129222  0.67771298    -0.12000
C854        C  0.99654793  0.55627096  0.70894268     0.10100
C855        C  0.47484303  0.56768750  0.72010047    -0.12000
C856        C  0.47603870  0.59531815  0.70172812    -0.12000
C857        C  0.99743313  0.61134728  0.67100523     0.10100
C858        C  0.01835113  0.59854694  0.65902312    -0.12000
H859        H  0.03440951  0.56234581  0.66800515     0.14100
H860        H  0.45746106  0.55631172  0.74348125     0.14100
H861        H  0.45989725  0.60476381  0.71192993     0.14100
H862        H  0.03486186  0.60925180  0.63481717     0.14100
C863        C  0.09402174  0.97644946  0.69120250    -0.12000
C864        C  0.11410609  0.50218487  0.66632788     0.10100
C865        C  0.10657851  0.52833982  0.66180517    -0.12000
C866        C  0.07938633  0.52769503  0.68119817    -0.12000
C867        C  0.05915448  0.50090820  0.70533224     0.10100
C868        C  0.06741835  0.97581817  0.71142748    -0.12000
H869        H  0.09953569  0.95623508  0.69551200     0.14100
H870        H  0.12146203  0.54914266  0.64304593     0.14100
H871        H  0.07487098  0.54860151  0.67822837     0.14100
H872        H  0.05295507  0.95520340  0.73064190     0.14100
C873        C  0.00193108  0.99951402  0.78856463     0.46800
H874        H  0.00194354  0.99832522  0.82001319    -0.02300
C875        C  0.50023324  0.49926273  0.71309897     0.46800
H876        H  0.50049513  0.49990786  0.68163119    -0.02300
C877        C  0.97079863  0.46683147  0.76743500    -0.16000
C878        C  0.00186200  0.03083901  0.77287141    -0.15700
C879        C  0.53081095  0.49859287  0.76929554    -0.16100
C880        C  0.97138797  0.46838572  0.72849466    -0.16100
C881        C  0.00123923  0.03211098  0.73382241    -0.15600
C882        C  0.53137019  0.49976851  0.73033741    -0.15900
O883        O  0.81571801  0.10009101  0.05585650    -0.77200
C884        C  0.77244153  0.16435187  0.07183560     0.83900
O885        O  0.78495933  0.12305766  0.92898839    -0.78300
O886        O  0.83066949  0.23488441  0.98419722    -0.79800
O887        O  0.90924301  0.20954383  0.04315939    -0.79600
O888        O  0.87084603  0.12675269  0.04622907    -0.78200
Zn889      Zn  0.79824803  0.12589720  0.02534508     1.55700
O890        O  0.87930315  0.23528406  0.05323989    -0.79600
Cd891      Cd  0.87761734  0.16687610  0.01337976     1.59700
Cd892      Cd  0.82819668  0.16675085  0.94540143     1.59600
O893        O  0.90050008  0.16561395  0.96349727    -0.79600
O894        O  0.83439780  0.16561616  0.00201510    -1.90100
Cd895      Cd  0.83567766  0.20564931  0.02495087     1.59900
O896        O  0.86894228  0.16861098  0.91696349    -0.79600
O897        O  0.79729865  0.19223871  0.06263866    -0.78200
C898        C  0.76589561  0.09718894  0.94878297     0.84300
C899        C  0.84460072  0.10287888  0.06087373     0.84000
O900        O  0.76881206  0.13676816  0.05924444    -0.77200
C901        C  0.90595699  0.23338985  0.05713136     0.84800
O902        O  0.76952405  0.09583669  0.98435754    -0.77300
C903        C  0.89462214  0.16722870  0.92849992     0.84900
C904        C  0.82794859  0.23389976  0.94832671     0.85200
O905        O  0.82653488  0.20985339  0.92881530    -0.79700
C906        C  0.85979495  0.35756561  0.84892235     0.04400
C907        C  0.86126885  0.32868612  0.86067710    -0.11700
C908        C  0.83444762  0.30263028  0.88032527     0.01900
C909        C  0.80580836  0.30524192  0.88819273    -0.10200
C910        C  0.80417389  0.33407613  0.87882396     0.04400
C911        C  0.83045442  0.35946700  0.85783284    -0.09700
H912        H  0.88371211  0.32678572  0.85633963     0.10000
H913        H  0.78478779  0.28487964  0.90264322     0.07600
H914        H  0.82801403  0.38087158  0.84945949     0.07400
O915        O  0.61800193  0.35286755  0.04705485    -0.77200
C916        C  0.72308128  0.38775881  0.06740409     0.83900
O917        O  0.66978780  0.37682872  0.92278527    -0.78300
O918        O  0.73136500  0.32291918  0.98215823    -0.79800
O919        O  0.62578742  0.25314423  0.04299174    -0.79600
O920        O  0.58788789  0.29801442  0.03894360    -0.78200
Zn921      Zn  0.66091169  0.36517779  0.01943013     1.55700
O922        O  0.68048674  0.27811461  0.05489180    -0.79600
Cd923      Cd  0.61998598  0.28678211  0.00971535     1.59700
Cd924      Cd  0.66994101  0.33294762  0.94105218     1.59600
O925        O  0.59797110  0.26265822  0.96062267    -0.79600
O926        O  0.66294189  0.32745909  0.99809786    -1.90100
Cd927      Cd  0.69945081  0.32275508  0.02368252     1.59900
O928        O  0.63206860  0.29133583  0.91278864    -0.79600
O929        O  0.72798376  0.36354877  0.05843269    -0.78200
C930        C  0.66881864  0.39954876  0.94280761     0.84300
C931        C  0.59131465  0.32527184  0.05205718     0.84000
O932        O  0.69814200  0.38998390  0.05525869    -0.77200
C933        C  0.65087960  0.25342403  0.05868210     0.84800
O934        O  0.66604726  0.39732393  0.97866158    -0.77300
C935        C  0.60532353  0.26636265  0.92543015     0.84900
C936        C  0.73564993  0.32930288  0.94673288     0.85200
O937        O  0.71581225  0.33546522  0.92705840    -0.79700
C938        C  0.63342001  0.13167655  0.13781797     0.04400
C939        C  0.63643675  0.16291241  0.12778531    -0.11700
C940        C  0.66529342  0.18709296  0.10871869     0.01900
C941        C  0.69096461  0.17998770  0.10018226    -0.10200
C942        C  0.68833069  0.14904835  0.10949986     0.04400
C943        C  0.65946413  0.12492544  0.12794265    -0.09700
H944        H  0.61645224  0.16830209  0.13461756     0.10000
H945        H  0.71251502  0.19827824  0.08430287     0.07600
H946        H  0.65779966  0.10123128  0.13541490     0.07400
C947        C  0.64493074  0.00286288  0.85079009     0.04400
C948        C  0.67282086  0.03318900  0.86172093    -0.11700
C949        C  0.69920819  0.03338557  0.88198532     0.01900
C950        C  0.69367492  0.49624250  0.88883738    -0.10200
C951        C  0.66593980  0.46596463  0.87805968     0.04400
C952        C  0.64002010  0.46666928  0.85752622    -0.09700
H953        H  0.67338433  0.05668669  0.85602625     0.10000
H954        H  0.71419688  0.49592063  0.90375677     0.07600
H955        H  0.61875199  0.44332321  0.84900736     0.07400
C956        C  0.49870189  0.36860974  0.13706614     0.04400
C957        C  0.96695826  0.34023696  0.12848720    -0.11700
C958        C  0.96708183  0.31692118  0.10293856     0.01900
C959        C  0.49872747  0.32208615  0.08579426    -0.10200
C960        C  0.52926895  0.34829617  0.09802538     0.04400
C961        C  0.52918108  0.37205342  0.12284169    -0.09700
H962        H  0.94320359  0.33626433  0.13970639     0.10000
H963        H  0.49866025  0.30613347  0.06329802     0.07600
H964        H  0.55284328  0.39341855  0.13032915     0.07400
C965        C  0.50013936  0.13816468  0.85853199     0.04400
C966        C  0.52802917  0.16874946  0.86939102    -0.11700
C967        C  0.52305755  0.19248289  0.88959968     0.01900
C968        C  0.49039374  0.18622370  0.89698249    -0.10200
C969        C  0.96386115  0.15495352  0.88752104     0.04400
C970        C  0.96865419  0.13088085  0.86871444    -0.09700
H971        H  0.55321058  0.17289759  0.86468449     0.10000
H972        H  0.48650774  0.20382005  0.91381801     0.07600
H973        H  0.94689672  0.10771932  0.86064412     0.07400
C974        C  0.85816748  0.49521196  0.13528187     0.04400
C975        C  0.85232993  0.02474737  0.13200969    -0.11700
C976        C  0.82429140  0.02082885  0.11158728     0.01900
C977        C  0.80163298  0.48584950  0.09485587    -0.10200
C978        C  0.80490378  0.45797507  0.10534733     0.04400
C979        C  0.83352036  0.46288551  0.12490178    -0.09700
H980        H  0.87226034  0.04949910  0.13881164     0.10000
H981        H  0.78053229  0.48255781  0.07789882     0.07600
H982        H  0.83619197  0.44144082  0.13278545     0.07400
O983        O  0.86678439  0.13176603  0.43628019    -0.77200
C984        C  0.90443356  0.23752037  0.44003744     0.83900
O985        O  0.87285030  0.15618719  0.56955172    -0.78300
O986        O  0.83780322  0.23486458  0.52734183    -0.79800
O987        O  0.76722027  0.14544094  0.43866809    -0.79600
O988        O  0.81154669  0.10342770  0.42951554    -0.78200
Zn989      Zn  0.87497651  0.16782422  0.47289472     1.55700
O990        O  0.79439268  0.20053284  0.44811665    -0.79600
Cd991      Cd  0.79609783  0.12865603  0.46674150     1.59700
Cd992      Cd  0.83126914  0.15959211  0.54940007     1.59600
O993        O  0.76567749  0.09490104  0.50740535    -0.79600
O994        O  0.83482975  0.16626289  0.49235506    -1.90100
Cd995      Cd  0.83644472  0.20936765  0.47882455     1.59900
O996        O  0.78695287  0.11608494  0.56407819    -0.79600
O997        O  0.87923373  0.24102486  0.44857544    -0.78200
C998        C  0.89770067  0.15830639  0.55056920     0.84300
C999        C  0.84082063  0.10796440  0.42185548     0.84000
O1000       O  0.90547362  0.21102703  0.44784818    -0.77200
C1001       C  0.76974311  0.17426656  0.43484789     0.84800
O1002       O  0.90000861  0.16255145  0.51494970    -0.77300
C1003       C  0.76452851  0.09340343  0.54348989     0.84900
C1004       C  0.83450540  0.22789981  0.56261404     0.85200
O1005       O  0.83058856  0.20015959  0.57552141    -0.79700
C1006       C  0.86794554  0.36224710  0.63890546     0.04400
C1007       C  0.87346180  0.33737545  0.62202282    -0.11700
C1008       C  0.84766246  0.31038938  0.60298887     0.01900
C1009       C  0.81678020  0.30924090  0.59834336    -0.10200
C1010       C  0.81139163  0.33483900  0.61226162     0.04400
C1011       C  0.83633480  0.36034838  0.63399572    -0.09700
H1012       H  0.89781151  0.33887303  0.62322523     0.10000
H1013       H  0.79740933  0.28917267  0.58206939     0.07600
H1014       H  0.83120844  0.37910047  0.64595310     0.07400
O1015       O  0.59407255  0.30040311  0.45795215    -0.77200
C1016       C  0.66647579  0.26555420  0.43975726     0.83900
O1017       O  0.63367171  0.28790244  0.58468955    -0.78300
O1018       O  0.74042933  0.33518284  0.51386501    -0.79800
O1019       O  0.69699326  0.40002972  0.45222626    -0.79600
O1020       O  0.61603896  0.35557116  0.46164560    -0.78200
Zn1021     Zn  0.62592705  0.28907077  0.48759781     1.55700
O1022       O  0.72847575  0.37597614  0.44190894    -0.79600
Cd1023     Cd  0.66012886  0.36892930  0.48942002     1.59700
Cd1024     Cd  0.67349173  0.33014325  0.55979406     1.59600
O1025       O  0.66262765  0.39619600  0.53662867    -0.79600
O1026       O  0.66559114  0.32973009  0.50349326    -1.90100
Cd1027     Cd  0.70577224  0.33412191  0.47625393     1.59900
O1028       O  0.67705191  0.37329643  0.58393823    -0.79600
O1029       O  0.69340612  0.29296155  0.44388857    -0.78200
C1030       C  0.60756162  0.26376940  0.57023408     0.84300
C1031       C  0.59318003  0.32727841  0.45055164     0.82000
O1032       O  0.63883158  0.26024160  0.45483550    -0.77200
C1033       C  0.72158385  0.39937420  0.43606934     0.84800
O1034       O  0.60208150  0.26204643  0.53458583    -0.77300
C1035       C  0.67091123  0.39577304  0.57097664     0.84900
C1036       C  0.74168734  0.33256218  0.54963395     0.85200
O1037       O  0.71824633  0.32995932  0.57157150    -0.79700
C1038       C  0.64081375  0.00228030  0.64209075     0.04400
C1039       C  0.63657294  0.46975794  0.63106201    -0.11700
C1040       C  0.66192716  0.46847562  0.61012127     0.01900
C1041       C  0.69044527  0.99884426  0.59820081    -0.10200
C1042       C  0.69557447  0.03013135  0.61032950     0.04400
C1043       C  0.67107082  0.03161707  0.63331700    -0.09700
H1044       H  0.61306514  0.44695556  0.63536831     0.10000
H1045       H  0.70919940  0.99710859  0.58094242     0.07600
H1046       H  0.67519546  0.05559510  0.64342313     0.07400
C1047       C  0.49832659  0.14070760  0.64843999     0.04400
C1048       C  0.52746760  0.16661682  0.63099803    -0.11700
C1049       C  0.52507352  0.18975034  0.60668187     0.01900
C1050       C  0.49384794  0.18737178  0.60061047    -0.10200
C1051       C  0.96374114  0.16056277  0.61848144     0.04400
C1052       C  0.96622585  0.13769426  0.64275469    -0.09700
H1053       H  0.55158621  0.16796814  0.63495101     0.10000
H1054       H  0.49197160  0.20477906  0.58118840     0.07600
H1055       H  0.94346081  0.11688239  0.65384049     0.07400
C1056       C  0.00278748  0.37530564  0.36918761     0.04400
C1057       C  0.53147271  0.37527835  0.37955350    -0.11700
C1058       C  0.53068861  0.35025835  0.40358731     0.01900
C1059       C  0.00078667  0.32572359  0.41772473    -0.10200
C1060       C  0.97085568  0.32346461  0.40465179     0.04400
C1061       C  0.97198813  0.34847914  0.38108679    -0.09700
H1062       H  0.55537924  0.39578454  0.37056604     0.10000
H1063       H  0.99957141  0.30756517  0.43821893     0.07600
H1064       H  0.94866213  0.34696956  0.37200276     0.07400
C1065       C  0.63010729  0.13068757  0.36127233     0.04400
C1066       C  0.62547824  0.15685725  0.37533439    -0.11700
C1067       C  0.64973213  0.18169413  0.39802145     0.01900
C1068       C  0.67882957  0.18014301  0.40715909    -0.10200
C1069       C  0.68424366  0.15449637  0.39312065     0.04400
C1070       C  0.65963460  0.12974616  0.37031345    -0.09700
H1071       H  0.60310413  0.15820982  0.36830872     0.10000
H1072       H  0.69638001  0.19806387  0.42686068     0.07600
H1073       H  0.66313512  0.10930971  0.36042799     0.07400
C1074       C  0.85246631  0.99799790  0.35161538     0.04400
C1075       C  0.85000373  0.02727286  0.35681190    -0.11700
C1076       C  0.82247839  0.02588511  0.37649997     0.01900
C1077       C  0.79754419  0.99533600  0.39059020    -0.10200
C1078       C  0.79750618  0.46547351  0.38033524     0.04400
C1079       C  0.82519652  0.46764646  0.36056637    -0.09700
H1080       H  0.86914566  0.05087590  0.34536672     0.10000
H1081       H  0.77764076  0.99523168  0.40736197     0.07600
H1082       H  0.82710946  0.44521038  0.35665930     0.07400
C1083       C  0.99793679  0.50369268  0.21243206     0.46800
H1084       H  0.99924685  0.50344185  0.18103036    -0.02300
C1085       C  0.99545104  0.50443556  0.28605119     0.46800
H1086       H  0.99413559  0.50438076  0.31748927    -0.02300
C1087       C  0.52510295  0.03137592  0.22880169    -0.16000
C1088       C  0.96676581  0.50451507  0.22774493    -0.15700
C1089       C  0.99731879  0.47311395  0.23142509    -0.16100
C1090       C  0.52516090  0.03150426  0.26785486    -0.16100
C1091       C  0.96522862  0.50447581  0.26675945    -0.15600
C1092       C  0.99658554  0.47374453  0.27032635    -0.15900
C1093       C  0.87622655  0.47480315  0.30127957    -0.12000
C1094       C  0.88141125  0.99876319  0.33107871     0.10100
C1095       C  0.91405838  0.02560946  0.33537144    -0.12000
C1096       C  0.94110234  0.02593059  0.31619778    -0.12000
C1097       C  0.93627039  0.50217490  0.28879072     0.10100
C1098       C  0.90379968  0.47576857  0.28263826    -0.12000
H1099       H  0.85147775  0.45444870  0.29523334     0.14100
H1100       H  0.91874481  0.04631903  0.35364909     0.14100
H1101       H  0.96568094  0.04741622  0.31882795     0.14100
H1102       H  0.89976076  0.45617243  0.26285894     0.14100
C1103       C  0.54453247  0.06854900  0.32435473    -0.12000
C1104       C  0.55253391  0.05630154  0.29190418     0.10100
C1105       C  0.58638524  0.06698391  0.28361182    -0.12000
C1106       C  0.61172418  0.09091056  0.30624507    -0.12000
C1107       C  0.60360616  0.10413436  0.33795683     0.10100
C1108       C  0.56970333  0.09217722  0.34707803    -0.12000
H1109       H  0.51887135  0.06019743  0.33204255     0.14100
H1110       H  0.59326859  0.05697456  0.25956793     0.14100
H1111       H  0.63759992  0.09949837  0.29851886     0.14100
H1112       H  0.56253396  0.10105867  0.37194139     0.14100
C1113       C  0.97949249  0.39070332  0.31297429    -0.12000
C1114       C  0.00262878  0.40077047  0.34290700     0.10100
C1115       C  0.52289568  0.43334297  0.34659136    -0.12000
C1116       C  0.52121072  0.45728159  0.32324511    -0.12000
C1117       C  0.99829910  0.44848809  0.29550599     0.10100
C1118       C  0.97718201  0.41424737  0.28978313    -0.12000
H1119       H  0.96297128  0.36447166  0.30755822     0.14100
H1120       H  0.54045740  0.44159138  0.36983209     0.14100
H1121       H  0.53799031  0.48351251  0.32844684     0.14100
H1122       H  0.95865856  0.40564996  0.26752332     0.14100
C1123       C  0.55315256  0.21359094  0.58239852    -0.15100
C1124       C  0.58273223  0.23727762  0.59568196    -0.30300
H1125       H  0.54746820  0.21408789  0.55260313     0.13900
H1126       H  0.58790077  0.23831712  0.62581642     0.14500
C1127       C  0.66906833  0.23940147  0.41835819    -0.15100
C1128       C  0.64372133  0.20824519  0.41391147    -0.30300
H1129       H  0.69382034  0.24567212  0.40772095     0.13900
H1130       H  0.61846372  0.20197209  0.42251620     0.14500
C1131       C  0.65516040  0.43724298  0.59119249    -0.15100
C1132       C  0.67458496  0.42305574  0.59588516    -0.30300
H1133       H  0.63416186  0.42629010  0.57175476     0.13900
H1134       H  0.69408197  0.43241415  0.61721002     0.14500
C1135       C  0.74274603  0.42740483  0.41080462    -0.15100
C1136       C  0.77296685  0.43325551  0.39818120    -0.30300
H1137       H  0.73363794  0.44472553  0.40452350     0.13900
H1138       H  0.78092117  0.41478427  0.40334271     0.14500
C1139       C  0.56427169  0.32525282  0.42961263    -0.15100
C1140       C  0.56217139  0.35251417  0.41863781    -0.30300
H1141       H  0.54369313  0.30042946  0.42411608     0.13900
H1142       H  0.58370672  0.37719757  0.42185267     0.14500
C1143       C  0.77113857  0.33141168  0.56464250    -0.15100
C1144       C  0.78087906  0.33636259  0.60105224    -0.30300
H1145       H  0.78632770  0.32710875  0.54398104     0.13900
H1146       H  0.76798221  0.34368410  0.62165776     0.14500
C1147       C  0.92614096  0.15729825  0.56841491    -0.15100
C1148       C  0.93069104  0.15539528  0.60566827    -0.30300
H1149       H  0.94596323  0.16018118  0.54901139     0.13900
H1150       H  0.91094326  0.15052130  0.62605150     0.14500
C1151       C  0.84545183  0.08406932  0.39804988    -0.15100
C1152       C  0.81936077  0.05568780  0.38607168    -0.30300
H1153       H  0.87064654  0.08751377  0.39543144     0.13900
H1154       H  0.79421247  0.05193061  0.39069752     0.14500
C1155       C  0.73616386  0.06358910  0.56064012    -0.15100
C1156       C  0.72538140  0.06123180  0.59669828    -0.30300
H1157       H  0.72226460  0.04285264  0.54155786     0.13900
H1158       H  0.73691773  0.08276476  0.61518679     0.14500
C1159       C  0.74279195  0.17778427  0.41612064    -0.15100
C1160       C  0.71384593  0.15142191  0.40498866    -0.30300
H1161       H  0.74625946  0.20286832  0.41362100     0.13900
H1162       H  0.71123916  0.12657428  0.40590166     0.14500
C1163       C  0.93817236  0.29549942  0.41678134    -0.15100
C1164       C  0.93422738  0.26481638  0.42213707    -0.30300
H1165       H  0.91740586  0.30028495  0.42175267     0.13900
H1166       H  0.95461968  0.25990254  0.41524998     0.14500
C1167       C  0.83382811  0.25244947  0.58890947    -0.15100
C1168       C  0.85387167  0.28542009  0.58354687    -0.30300
H1169       H  0.81532920  0.24351258  0.61162877     0.13900
H1170       H  0.87387330  0.29430645  0.56253856     0.14500
C1171       C  0.89913818  0.52169696  0.18822298    -0.12000
C1172       C  0.88781556  0.50001289  0.15712544     0.10100
C1173       C  0.90080109  0.98234183  0.15210808    -0.12000
C1174       C  0.92740524  0.98393664  0.17292726    -0.12000
C1175       C  0.94103937  0.50490608  0.20206697     0.10100
C1176       C  0.92567797  0.52433922  0.21025524    -0.12000
H1177       H  0.88686895  0.53590603  0.19615400     0.14100
H1178       H  0.89242989  0.96667430  0.12723030     0.14100
H1179       H  0.93890455  0.96961541  0.16332382     0.14100
H1180       H  0.93381269  0.54124447  0.23403109     0.14100
C1181       C  0.97059537  0.40190335  0.16251103    -0.12000
C1182       C  0.49841320  0.39486461  0.16182395     0.10100
C1183       C  0.52489558  0.41363255  0.18695244    -0.12000
C1184       C  0.52482044  0.43901851  0.20890119    -0.12000
C1185       C  0.99747915  0.44598473  0.20887836     0.10100
C1186       C  0.97059355  0.42688064  0.18494431    -0.12000
H1187       H  0.94988034  0.38864367  0.14336702     0.14100
H1188       H  0.54560090  0.40863956  0.18993327     0.14100
H1189       H  0.54555629  0.45334205  0.22772811     0.14100
H1190       H  0.94912597  0.43070591  0.18420635     0.14100
C1191       C  0.56331427  0.09149743  0.21091324    -0.12000
C1192       C  0.55134448  0.05738678  0.20421784     0.10100
C1193       C  0.56463021  0.04788324  0.17383943    -0.12000
C1194       C  0.59048329  0.07200165  0.15155902    -0.12000
C1195       C  0.60369657  0.10621870  0.15922543     0.10100
C1196       C  0.58938956  0.11568952  0.18879624    -0.12000
H1197       H  0.55290504  0.09940622  0.23372079     0.14100
H1198       H  0.55559599  0.02172391  0.16793106     0.14100
H1199       H  0.60036292  0.06380482  0.12849986     0.14100
H1200       H  0.59903077  0.14175968  0.19563228     0.14100
C1201       C  0.58161747  0.24043343  0.89917821    -0.15100
C1202       C  0.54992114  0.22034353  0.91088117    -0.30300
H1203       H  0.58970773  0.23806788  0.87093806     0.13900
H1204       H  0.54228217  0.22518709  0.93832570     0.14500
C1205       C  0.66973115  0.21977190  0.09552678    -0.15100
C1206       C  0.64476180  0.22333459  0.08051588    -0.30300
H1207       H  0.69523144  0.24029080  0.09292037     0.13900
H1208       H  0.61940142  0.20242971  0.08110533     0.14500
C1209       C  0.67218286  0.43047108  0.92586311    -0.15100
C1210       C  0.66311759  0.43361940  0.89054250    -0.30300
H1211       H  0.68062055  0.45153324  0.94499285     0.13900
H1212       H  0.65132623  0.41200771  0.87219622     0.14500
C1213       C  0.56105929  0.35138784  0.08313701    -0.15100
C1214       C  0.56293295  0.32408364  0.07282329    -0.30300
H1215       H  0.58260689  0.37610470  0.07969398     0.13900
H1216       H  0.54198858  0.29935332  0.07827784     0.14500
C1217       C  0.77962166  0.42399874  0.09326706    -0.15100
C1218       C  0.74718767  0.41562390  0.09051537    -0.30300
H1219       H  0.78815636  0.40687205  0.08376329     0.13900
H1220       H  0.73892692  0.43267748  0.10106581     0.14500
C1221       C  0.77581110  0.33820634  0.89346227    -0.15100
C1222       C  0.76440356  0.32825515  0.92905286    -0.30300
H1223       H  0.76534064  0.35034269  0.87594916     0.13900
H1224       H  0.77719997  0.31872882  0.94697978     0.14500
C1225       C  0.73897877  0.06690351  0.93132304    -0.15100
C1226       C  0.72692237  0.06534667  0.89629044    -0.30300
H1227       H  0.72766910  0.04468730  0.94917938     0.13900
H1228       H  0.73584106  0.08786975  0.87920782     0.14500
C1229       C  0.74696366  0.16555239  0.09612323    -0.15100
C1230       C  0.71485206  0.14136908  0.09717103    -0.30300
H1231       H  0.75385382  0.18949208  0.10909966     0.13900
H1232       H  0.70754629  0.11695164  0.08535476     0.14500
C1233       C  0.82550899  0.26156684  0.93018637    -0.15100
C1234       C  0.83699622  0.27354753  0.89518775    -0.30300
H1235       H  0.81586895  0.27435689  0.94792102     0.13900
H1236       H  0.85003848  0.26342745  0.87864778     0.14500
C1237       C  0.91954677  0.16914707  0.90094298    -0.15100
C1238       C  0.93047078  0.14683474  0.90206281    -0.30300
H1239       H  0.93224599  0.19143139  0.88338080     0.13900
H1240       H  0.91666424  0.12387428  0.91834211     0.14500
C1241       C  0.93540930  0.28807635  0.08974012    -0.15100
C1242       C  0.93454157  0.25982963  0.07737239    -0.30300
H1243       H  0.91301728  0.29064941  0.08868514     0.13900
H1244       H  0.95631581  0.25641989  0.08048128     0.14500
C1245       C  0.84819941  0.07748038  0.08313779    -0.15100
C1246       C  0.82156627  0.04949759  0.09602170    -0.30300
H1247       H  0.87323300  0.08067634  0.08614087     0.13900
H1248       H  0.79656069  0.04579347  0.09078249     0.14500
C1249       C  0.91290533  0.38077527  0.80867495    -0.12000
C1250       C  0.88914477  0.38600060  0.82893595     0.10100
C1251       C  0.89412544  0.41892533  0.83012949    -0.12000
C1252       C  0.92072048  0.44502880  0.81040822    -0.12000
C1253       C  0.94373621  0.43933907  0.78995012     0.10100
C1254       C  0.94024482  0.40725005  0.79039063    -0.12000
H1255       H  0.91044599  0.35620667  0.80625572     0.14100
H1256       H  0.87769216  0.42494250  0.84633330     0.14100
H1257       H  0.92301599  0.46963197  0.81069826     0.14100
H1258       H  0.95854744  0.40251211  0.77632800     0.14100
C1259       C  0.52791449  0.09357540  0.78843472    -0.12000
C1260       C  0.00497295  0.05795912  0.79829600     0.10100
C1261       C  0.98370912  0.05030952  0.82978870    -0.12000
C1262       C  0.98375689  0.07583568  0.85127312    -0.12000
C1263       C  0.50423349  0.11149995  0.83925901     0.10100
C1264       C  0.52724885  0.11916734  0.80934282    -0.12000
H1265       H  0.54540279  0.10011125  0.76499133     0.14100
H1266       H  0.96606295  0.02463639  0.83685860     0.14100
H1267       H  0.96631874  0.06916643  0.87477904     0.14100
H1268       H  0.54377006  0.14487164  0.80115539     0.14100
C1269       C  0.59172472  0.52458252  0.78528653    -0.12000
C1270       C  0.55855672  0.49966074  0.79216487     0.10100
C1271       C  0.55233760  0.47452068  0.81878925    -0.12000
C1272       C  0.57901735  0.47365885  0.83727603    -0.12000
C1273       C  0.61244173  0.49804037  0.82955054     0.10100
C1274       C  0.61834609  0.52364638  0.80348446    -0.12000
H1275       H  0.59707242  0.54441137  0.76507055     0.14100
H1276       H  0.52691661  0.45506442  0.82448401     0.14100
H1277       H  0.57343157  0.45398475  0.85776937     0.14100
H1278       H  0.64762103  0.04655661  0.79604484     0.14100
C1279       C  0.92208927  0.44735474  0.68508672    -0.12000
C1280       C  0.94597317  0.44207051  0.70406111     0.10100
C1281       C  0.94543091  0.41147349  0.69990757    -0.12000
C1282       C  0.91996093  0.38559372  0.67945657    -0.12000
C1283       C  0.89525110  0.39021207  0.66083145     0.10100
C1284       C  0.89715521  0.42183406  0.66342775    -0.12000
H1285       H  0.92260708  0.47115782  0.68728676     0.14100
H1286       H  0.96463968  0.40746783  0.71277631     0.14100
H1287       H  0.91959058  0.36184243  0.67883043     0.14100
H1288       H  0.87958349  0.42714007  0.64863351     0.14100
C1289       C  0.52031066  0.07383986  0.67818771    -0.12000
C1290       C  0.49974140  0.05960890  0.71010986     0.10100
C1291       C  0.97817357  0.07155144  0.72306968    -0.12000
C1292       C  0.97822442  0.09826550  0.70370832    -0.12000
C1293       C  0.49948131  0.11337607  0.67036127     0.10100
C1294       C  0.52038270  0.10050645  0.65868130    -0.12000
H1295       H  0.53664892  0.06465836  0.66840056     0.14100
H1296       H  0.96156084  0.06075390  0.74719138     0.14100
H1297       H  0.96195829  0.10763105  0.71373890     0.14100
H1298       H  0.53637803  0.11059268  0.63396780     0.14100
C1299       C  0.59353375  0.47436016  0.69275232    -0.12000
C1300       C  0.61385977  0.00314234  0.66506492     0.10100
C1301       C  0.60568306  0.02875889  0.66015645    -0.12000
C1302       C  0.57942777  0.02856001  0.68095101    -0.12000
C1303       C  0.56076108  0.00275465  0.70684537     0.10100
C1304       C  0.56641862  0.47361510  0.71211835    -0.12000
H1305       H  0.59941881  0.45451684  0.69798385     0.14100
H1306       H  0.61938376  0.04880262  0.64004446     0.14100
H1307       H  0.57450033  0.04913549  0.67762913     0.14100
H1308       H  0.55199877  0.45326371  0.73164910     0.14100
C1309       C  0.00002202  0.49746478  0.78595035     0.46800
H1310       H  0.99979614  0.49632466  0.81741065    -0.02300
C1311       C  0.50312142  0.00329839  0.71432795     0.46800
H1312       H  0.50280194  0.00360425  0.68285731    -0.02300
C1313       C  0.97180386  0.96962234  0.77034371    -0.16000
C1314       C  0.99834451  0.52795830  0.77011232    -0.15700
C1315       C  0.53457091  0.00273473  0.76979122    -0.16100
C1316       C  0.97215678  0.97094564  0.73142378    -0.16100
C1317       C  0.99831749  0.52932212  0.73105481    -0.15600
C1318       C  0.53438787  0.00357815  0.73084951    -0.15900
O1319       O  0.81526904  0.59817476  0.05236744    -0.77200
C1320       C  0.77293937  0.66668199  0.06033664     0.83900
O1321       O  0.78458667  0.61424387  0.92467483    -0.78300
O1322       O  0.83614906  0.73211414  0.96595587    -0.79800
O1323       O  0.90780459  0.70787379  0.04016772    -0.79600
O1324       O  0.87056378  0.62562649  0.04378729    -0.78200
Zn1325     Zn  0.79789617  0.62378836  0.02087077     1.55700
O1326       O  0.87834691  0.73467548  0.04344487    -0.79600
Cd1327     Cd  0.87783836  0.66509195  0.00993007     1.59700
Cd1328     Cd  0.82894758  0.65768657  0.93816364     1.59600
O1329       O  0.90293308  0.66299787  0.96253841    -0.79600
O1330       O  0.83452160  0.66196580  0.99507469    -1.90100
Cd1331     Cd  0.83661746  0.70439497  0.01186384     1.59900
O1332       O  0.86936125  0.65456343  0.91321210    -0.79600
O1333       O  0.79634557  0.69347924  0.04612350    -0.78200
C1334       C  0.76384927  0.59064610  0.94613303     0.84300
C1335       C  0.84431205  0.60144543  0.05791418     0.84000
O1336       O  0.77032014  0.63814955  0.05377276    -0.77200
C1337       C  0.90420908  0.73229699  0.05140484     0.84800
O1338       O  0.76697786  0.59165448  0.98201339    -0.77300
C1339       C  0.89656519  0.65789163  0.92728154     0.84900
C1340       C  0.83118856  0.72636983  0.93060706     0.85200
O1341       O  0.82678629  0.69912508  0.91582961    -0.79700
C1342       C  0.86486251  0.86309669  0.85899976     0.04400
C1343       C  0.86952848  0.83733659  0.87502581    -0.11700
C1344       C  0.84343996  0.81042416  0.89435409     0.01900
C1345       C  0.81304113  0.81014831  0.90018512    -0.10200
C1346       C  0.80858686  0.83683876  0.88766129     0.04400
C1347       C  0.83385795  0.86231980  0.86553273    -0.09700
H1348       H  0.89348512  0.83802923  0.87287539     0.10000
H1349       H  0.79340115  0.78980571  0.91626362     0.07600
H1350       H  0.82942816  0.88182664  0.85442144     0.07400
O1351       O  0.61601546  0.85526231  0.04533992    -0.77200
C1352       C  0.72051281  0.89103672  0.07269380     0.83900
O1353       O  0.67662762  0.88439186  0.92587756    -0.78300
O1354       O  0.73310004  0.82735172  0.98749695    -0.79800
O1355       O  0.62665955  0.75625449  0.04366368    -0.79600
O1356       O  0.58764560  0.80023715  0.03742779    -0.78200
Zn1357     Zn  0.66063080  0.86903024  0.02112761     1.55700
O1358       O  0.68082167  0.78229196  0.05819521    -0.79600
Cd1359     Cd  0.62150131  0.79019651  0.01013407     1.59700
Cd1360     Cd  0.67366098  0.83916416  0.94385481     1.59600
O1361       O  0.60160634  0.76690442  0.96000685    -0.79600
O1362       O  0.66425197  0.83193651  0.00034669    -1.90100
Cd1363     Cd  0.70004082  0.82721699  0.02753333     1.59900
O1364       O  0.63457205  0.80076505  0.91398745    -0.79600
O1365       O  0.72660384  0.86765771  0.06331440    -0.78200
C1366       C  0.67395839  0.90635659  0.94549286     0.84300
C1367       C  0.58967504  0.82721712  0.04960897     0.84000
O1368       O  0.69559032  0.89288995  0.05976513    -0.77200
C1369       C  0.65148591  0.75697252  0.06053585     0.84800
O1370       O  0.66829570  0.90284345  0.98095188    -0.77300
C1371       C  0.60886356  0.77403035  0.92513713     0.84900
C1372       C  0.73776698  0.83246678  0.95189080     0.85200
O1373       O  0.71838968  0.83843212  0.93104319    -0.79700
C1374       C  0.63696725  0.63500778  0.13758812     0.04400
C1375       C  0.63915652  0.66605932  0.12823920    -0.11700
C1376       C  0.66701678  0.69044713  0.10800676     0.01900
C1377       C  0.69237052  0.68364132  0.09692997    -0.10200
C1378       C  0.69080874  0.65302300  0.10555411     0.04400
C1379       C  0.66303679  0.62882287  0.12576811    -0.09700
H1380       H  0.61927225  0.67121391  0.13639946     0.10000
H1381       H  0.71265614  0.70201495  0.07964736     0.07600
H1382       H  0.66214772  0.60538819  0.13274807     0.07400
C1383       C  0.64102447  0.49728031  0.84905425     0.04400
C1384       C  0.66906302  0.52731074  0.86056053    -0.11700
C1385       C  0.69519030  0.52692847  0.88084411     0.01900
C1386       C  0.69817005  0.00294813  0.89041009    -0.10200
C1387       C  0.67043080  0.97236399  0.88054044     0.04400
C1388       C  0.64415930  0.97250776  0.86011590    -0.09700
H1389       H  0.66996665  0.55102542  0.85532233     0.10000
H1390       H  0.71899893  0.00306847  0.90509277     0.07600
H1391       H  0.62287899  0.94895178  0.85215244     0.07400
C1392       C  0.49497992  0.86809357  0.13388253     0.04400
C1393       C  0.96394209  0.83946468  0.12286735    -0.11700
C1394       C  0.96406270  0.81629350  0.09705486     0.01900
C1395       C  0.49529249  0.82211818  0.08199167    -0.10200
C1396       C  0.52573800  0.84855126  0.09405498     0.04400
C1397       C  0.52547784  0.87200224  0.11917085    -0.09700
H1398       H  0.94022266  0.83520444  0.13450339     0.10000
H1399       H  0.49526212  0.80611966  0.05954432     0.07600
H1400       H  0.54906766  0.89343922  0.12667953     0.07400
C1401       C  0.50620254  0.63816956  0.85885439     0.04400
C1402       C  0.53814871  0.66468897  0.86780488    -0.11700
C1403       C  0.54159068  0.69254113  0.88743390     0.01900
C1404       C  0.51303416  0.69357509  0.89967936    -0.10200
C1405       C  0.98111868  0.66615655  0.89449365     0.04400
C1406       C  0.97759948  0.63893711  0.87264889    -0.09700
H1407       H  0.56052044  0.66343931  0.86026134     0.10000
H1408       H  0.51592092  0.71436315  0.91688729     0.07600
H1409       H  0.95281605  0.61858129  0.86672549     0.07400
C1410       C  0.85510677  0.99665705  0.14287393     0.04400
C1411       C  0.85432602  0.52278448  0.12479469    -0.11700
C1412       C  0.82629935  0.51824580  0.10387025     0.01900
C1413       C  0.79853714  0.98863468  0.10362513    -0.10200
C1414       C  0.80096703  0.96031398  0.11426446     0.04400
C1415       C  0.82948627  0.96456398  0.13342853    -0.09700
H1416       H  0.87335710  0.54764505  0.13260961     0.10000
H1417       H  0.77754226  0.98587556  0.08685841     0.07600
H1418       H  0.83158532  0.94278391  0.14128943     0.07400
O1419       O  0.86539995  0.62932436  0.44125905    -0.77200
C1420       C  0.90264733  0.73536236  0.43962549     0.83900
O1421       O  0.87340913  0.65884228  0.57288256    -0.78300
O1422       O  0.83901388  0.73632005  0.52950500    -0.79800
O1423       O  0.76622314  0.64521741  0.44215610    -0.79600
O1424       O  0.81043479  0.60265807  0.43212173    -0.78200
Zn1425     Zn  0.87390723  0.66695417  0.47577103     1.55700
O1426       O  0.79351678  0.70031564  0.45183124    -0.79600
Cd1427     Cd  0.79530030  0.62827735  0.46970670     1.59700
Cd1428     Cd  0.83076072  0.66029690  0.55243606     1.59600
O1429       O  0.76527964  0.59473386  0.51091080    -0.79600
O1430       O  0.83409964  0.66609864  0.49522979    -1.90100
Cd1431     Cd  0.83617831  0.70942559  0.48139956     1.59900
O1432       O  0.78670660  0.61625950  0.56747569    -0.79600
O1433       O  0.87824302  0.73982301  0.44928223    -0.78200
C1434       C  0.89867835  0.66186816  0.55396265     0.84300
C1435       C  0.83955531  0.60619481  0.42579450     0.84000
O1436       O  0.90335357  0.70878093  0.44782930    -0.77200
C1437       C  0.76872780  0.67407920  0.43869930     0.84800
O1438       O  0.90041949  0.66497875  0.51820621    -0.77300
C1439       C  0.76430314  0.59333178  0.54702812     0.84900
C1440       C  0.83485202  0.72930378  0.56477079     0.85200
O1441       O  0.82973521  0.70114651  0.57778152    -0.79700
C1442       C  0.86933892  0.86433743  0.64152804     0.04400
C1443       C  0.87471108  0.83933181  0.62467798    -0.11700
C1444       C  0.84874999  0.81229759  0.60570498     0.01900
C1445       C  0.81783268  0.81121276  0.60145789    -0.10200
C1446       C  0.81256326  0.83687699  0.61549988     0.04400
C1447       C  0.83772819  0.86247071  0.63690234    -0.09700
H1448       H  0.89905196  0.84079917  0.62595057     0.10000
H1449       H  0.79829937  0.79111087  0.58537918     0.07600
H1450       H  0.83277558  0.88133139  0.64890043     0.07400
O1451       O  0.59349790  0.79958685  0.46123807    -0.77200
C1452       C  0.66691154  0.76656134  0.44247139     0.83900
O1453       O  0.63460688  0.78880092  0.58795010    -0.78300
O1454       O  0.74030562  0.83533314  0.51766510    -0.79800
O1455       O  0.69733895  0.90040921  0.45504572    -0.79600
O1456       O  0.61625341  0.85489284  0.46203450    -0.78200
Zn1457     Zn  0.62601798  0.78913357  0.49095947     1.55700
O1458       O  0.72945801  0.87682699  0.44653426    -0.79600
Cd1459     Cd  0.65978863  0.86863808  0.49095622     1.59700
Cd1460     Cd  0.67366843  0.83125385  0.56276821     1.59600
O1461       O  0.66049124  0.89536907  0.53757142    -0.79600
O1462       O  0.66560484  0.83000304  0.50640783    -1.90100
Cd1463     Cd  0.70602646  0.83454871  0.47981889     1.59900
O1464       O  0.67495441  0.87360157  0.58601754    -0.79600
O1465       O  0.69384759  0.79393786  0.44670062    -0.78200
C1466       C  0.60867191  0.76424206  0.57384092     0.84300
C1467       C  0.59296633  0.82637106  0.45228512     0.82000
O1468       O  0.63931599  0.76100699  0.45787282    -0.77200
C1469       C  0.72257251  0.90014102  0.44017529     0.84800
O1470       O  0.60288429  0.76207874  0.53823845    -0.77300
C1471       C  0.66810101  0.89532642  0.57223803     0.84900
C1472       C  0.74214871  0.83407460  0.55350660     0.85200
O1473       O  0.71914106  0.83255747  0.57542493    -0.79700
C1474       C  0.64086059  0.50019799  0.64532371     0.04400
C1475       C  0.63556963  0.97163508  0.62750487    -0.11700
C1476       C  0.66042485  0.96982395  0.60626671     0.01900
C1477       C  0.69165822  0.49794702  0.60222180    -0.10200
C1478       C  0.69592300  0.52902426  0.61407592     0.04400
C1479       C  0.67086455  0.52989684  0.63669420    -0.09700
H1480       H  0.61187521  0.94911008  0.63211203     0.10000
H1481       H  0.71075326  0.49675867  0.58503417     0.07600
H1482       H  0.67432364  0.55371857  0.64648292     0.07400
C1483       C  0.49846857  0.63955566  0.65054646     0.04400
C1484       C  0.52825820  0.66503085  0.63377110    -0.11700
C1485       C  0.52739464  0.68994284  0.61125485     0.01900
C1486       C  0.49714295  0.68995790  0.60642741    -0.10200
C1487       C  0.96509916  0.66368916  0.62144796     0.04400
C1488       C  0.96650184  0.63941655  0.64431402    -0.09700
H1489       H  0.55170592  0.66478876  0.63681730     0.10000
H1490       H  0.49658653  0.70888324  0.58838022     0.07600
H1491       H  0.94325636  0.61886086  0.65480468     0.07400
C1492       C  0.00218321  0.87155810  0.36660660     0.04400
C1493       C  0.53197832  0.87432077  0.37972047    -0.11700
C1494       C  0.53094339  0.84938113  0.40413731     0.01900
C1495       C  0.99950188  0.82171048  0.41519212    -0.10200
C1496       C  0.96974352  0.81998616  0.40226973     0.04400
C1497       C  0.97123102  0.84511812  0.37868262    -0.09700
H1498       H  0.55595464  0.89444707  0.37030015     0.10000
H1499       H  0.99801357  0.80341455  0.43564969     0.07600
H1500       H  0.94804573  0.84402343  0.36975744     0.07400
C1501       C  0.63025194  0.63236856  0.36300331     0.04400
C1502       C  0.62570770  0.65861293  0.37691613    -0.11700
C1503       C  0.64962239  0.68295396  0.40033142     0.01900
C1504       C  0.67821841  0.68082545  0.41041013    -0.10200
C1505       C  0.68351992  0.65507161  0.39655542     0.04400
C1506       C  0.65926741  0.63079846  0.37301269    -0.09700
H1507       H  0.60371244  0.66041408  0.36919641     0.10000
H1508       H  0.69546460  0.69842749  0.43059461     0.07600
H1509       H  0.66267317  0.61028268  0.36318664     0.07400
C1510       C  0.85103589  0.49860152  0.34726563     0.04400
C1511       C  0.84893278  0.52781501  0.35481245    -0.11700
C1512       C  0.82118219  0.52581625  0.37468125     0.01900
C1513       C  0.79568397  0.49473216  0.38669956    -0.10200
C1514       C  0.79963051  0.96604200  0.38610481     0.04400
C1515       C  0.82721722  0.96763513  0.36682573    -0.09700
H1516       H  0.86858990  0.55190354  0.34514327     0.10000
H1517       H  0.77568794  0.49415644  0.40371427     0.07600
H1518       H  0.82934427  0.94518670  0.36444832     0.07400
C1519       C  0.99495487  0.00095904  0.21307910     0.46800
H1520       H  0.99537072  0.00111085  0.18162111    -0.02300
C1521       C  0.99457490  0.00089313  0.28678748     0.46800
H1522       H  0.99403992  0.00045150  0.31825826    -0.02300
C1523       C  0.52793552  0.53359224  0.22816219    -0.16000
C1524       C  0.96436786  0.00173510  0.23013373    -0.15700
C1525       C  0.99488981  0.97019746  0.23072058    -0.16100
C1526       C  0.52717781  0.53381268  0.26720634    -0.16100
C1527       C  0.96399569  0.00129399  0.26912653    -0.15600
C1528       C  0.99530923  0.97044252  0.26965323    -0.15900
C1529       C  0.87660438  0.97217491  0.30735382    -0.12000
C1530       C  0.88047793  0.50010482  0.32681981     0.10100
C1531       C  0.91313436  0.52630173  0.33322108    -0.12000
C1532       C  0.94068142  0.52726982  0.31442443    -0.12000
C1533       C  0.93605707  0.99949315  0.29239738     0.10100
C1534       C  0.90365025  0.97250927  0.28833871    -0.12000
H1535       H  0.85178645  0.95135163  0.30285144     0.14100
H1536       H  0.91746644  0.54597037  0.35299297     0.14100
H1537       H  0.96529413  0.54820310  0.31907454     0.14100
H1538       H  0.89921909  0.95205632  0.26971310     0.14100
C1539       C  0.54544439  0.57087377  0.32378340    -0.12000
C1540       C  0.55405746  0.55874460  0.29167840     0.10100
C1541       C  0.58808036  0.56962083  0.28417191    -0.12000
C1542       C  0.61294981  0.59344819  0.30731702    -0.12000
C1543       C  0.60420371  0.60636221  0.33880265     0.10100
C1544       C  0.57014396  0.59442345  0.34701833    -0.12000
H1545       H  0.51957169  0.56236129  0.33093905     0.14100
H1546       H  0.59546804  0.55972101  0.26043579     0.14100
H1547       H  0.63898352  0.60208355  0.30028232     0.14100
H1548       H  0.56251918  0.60313862  0.37164948     0.14100
C1549       C  0.97899969  0.88721677  0.31061653    -0.12000
C1550       C  0.00235611  0.89711432  0.34030045     0.10100
C1551       C  0.52376742  0.93239032  0.34546918    -0.12000
C1552       C  0.52143855  0.95596087  0.32212234    -0.12000
C1553       C  0.99779574  0.94505523  0.29370938     0.10100
C1554       C  0.97656552  0.91088261  0.28782644    -0.12000
H1555       H  0.96226083  0.86102126  0.30524217     0.14100
H1556       H  0.54185359  0.94097141  0.36818714     0.14100
H1557       H  0.53827286  0.98227550  0.32676466     0.14100
H1558       H  0.95770880  0.90243400  0.26593257     0.14100
C1559       C  0.55568341  0.71265252  0.58661880    -0.15100
C1560       C  0.58428020  0.73797138  0.59976529    -0.30300
H1561       H  0.55056257  0.71121848  0.55643944     0.13900
H1562       H  0.58874464  0.74059043  0.63009169     0.14500
C1563       C  0.66936097  0.74059702  0.42066013    -0.15100
C1564       C  0.64379908  0.70962684  0.41598333    -0.30300
H1565       H  0.69410077  0.74668591  0.41014648     0.13900
H1566       H  0.61856219  0.70354098  0.42445513     0.14500
C1567       C  0.65336002  0.93842880  0.58789121    -0.15100
C1568       C  0.67032956  0.92231453  0.59653524    -0.30300
H1569       H  0.63506914  0.92951843  0.56523044     0.13900
H1570       H  0.68726736  0.93022004  0.62051509     0.14500
C1571       C  0.74446993  0.92841187  0.41571424    -0.15100
C1572       C  0.77505779  0.93430504  0.40459708    -0.30300
H1573       H  0.73544284  0.94561736  0.40844014     0.13900
H1574       H  0.78297666  0.91596363  0.41080101     0.14500
C1575       C  0.56403893  0.82411828  0.43115513    -0.15100
C1576       C  0.56231883  0.85135213  0.41914054    -0.30300
H1577       H  0.54317710  0.79929012  0.42654635     0.13900
H1578       H  0.58414196  0.87593773  0.42157835     0.14500
C1579       C  0.77177176  0.83317272  0.56846142    -0.15100
C1580       C  0.78192565  0.83840917  0.60471705    -0.30300
H1581       H  0.78673725  0.82862351  0.54771804     0.13900
H1582       H  0.76927560  0.84590238  0.62545190     0.14500
C1583       C  0.92816137  0.66303270  0.57187106    -0.15100
C1584       C  0.93240020  0.65975666  0.60892225    -0.30300
H1585       H  0.94841834  0.66733026  0.55240322     0.13900
H1586       H  0.91203491  0.65295932  0.62906896     0.14500
C1587       C  0.84422419  0.58232911  0.40179204    -0.15100
C1588       C  0.81840486  0.55537183  0.38669450    -0.30300
H1589       H  0.86914183  0.58490645  0.40047405     0.13900
H1590       H  0.79334683  0.55220600  0.38995931     0.14500
C1591       C  0.73621922  0.56321830  0.56431121    -0.15100
C1592       C  0.72533922  0.56055338  0.60039712    -0.30300
H1593       H  0.72262837  0.54236717  0.54527062     0.13900
H1594       H  0.73649145  0.58208803  0.61890545     0.14500
C1595       C  0.74171661  0.67776640  0.42038124    -0.15100
C1596       C  0.71275275  0.65158484  0.40898871    -0.30300
H1597       H  0.74533146  0.70291266  0.41803697     0.13900
H1598       H  0.70999033  0.62666864  0.40969317     0.14500
C1599       C  0.93687973  0.79270700  0.41494060    -0.15100
C1600       C  0.93209957  0.76172973  0.42017598    -0.30300
H1601       H  0.91680261  0.79834362  0.42081174     0.13900
H1602       H  0.95184095  0.75605094  0.41251348     0.14500
C1603       C  0.83434929  0.75414308  0.59094785    -0.15100
C1604       C  0.85470659  0.78716918  0.58596175    -0.30300
H1605       H  0.81574366  0.74529101  0.61355829     0.13900
H1606       H  0.87485442  0.79601494  0.56515265     0.14500
C1607       C  0.89733260  0.02167604  0.19482398    -0.12000
C1608       C  0.88495768  0.00053613  0.16339525     0.10100
C1609       C  0.90471144  0.48246592  0.14734189    -0.12000
C1610       C  0.93130660  0.48528690  0.16925520    -0.12000
C1611       C  0.93829178  0.00308717  0.20599881     0.10100
C1612       C  0.92395454  0.02315960  0.21572431    -0.12000
H1613       H  0.88587391  0.03638081  0.20378516     0.14100
H1614       H  0.89729091  0.46648344  0.12272187     0.14100
H1615       H  0.94375093  0.47160001  0.16061580     0.14100
H1616       H  0.93307612  0.03982079  0.23966390     0.14100
C1617       C  0.96740218  0.90029798  0.15965081    -0.12000
C1618       C  0.49478430  0.89380615  0.15961815     0.10100
C1619       C  0.52144713  0.91205912  0.18474396    -0.12000
C1620       C  0.52158053  0.93702433  0.20761572    -0.12000
C1621       C  0.99479564  0.94354431  0.20692437     0.10100
C1622       C  0.96755564  0.92473288  0.18327361    -0.12000
H1623       H  0.94635212  0.88720807  0.14088697     0.14100
H1624       H  0.54214811  0.90698307  0.18701605     0.14100
H1625       H  0.54248543  0.95101023  0.22635174     0.14100
H1626       H  0.94600156  0.92843975  0.18357618     0.14100
C1627       C  0.56619473  0.59383843  0.21034212    -0.12000
C1628       C  0.55474569  0.55975722  0.20401857     0.10100
C1629       C  0.56919877  0.55051483  0.17458578    -0.12000
C1630       C  0.59536545  0.57483800  0.15268360    -0.12000
C1631       C  0.60780296  0.60909100  0.15971763     0.10100
C1632       C  0.59257307  0.61822477  0.18865958    -0.12000
H1633       H  0.55504279  0.60160161  0.23248844     0.14100
H1634       H  0.56065477  0.52439692  0.16897836     0.14100
H1635       H  0.60577446  0.56670818  0.13012096     0.14100
H1636       H  0.60152859  0.64422474  0.19524308     0.14100
C1637       C  0.58549978  0.75057034  0.89744250    -0.15100
C1638       C  0.57451559  0.71775699  0.90160564    -0.30300
H1639       H  0.57352431  0.75951639  0.87754865     0.13900
H1640       H  0.58749703  0.70918683  0.92056369     0.14500
C1641       C  0.67080172  0.72322971  0.09632570    -0.15100
C1642       C  0.64558229  0.72666661  0.08182729    -0.30300
H1643       H  0.69616985  0.74402701  0.09395624     0.13900
H1644       H  0.62039837  0.70545516  0.08196560     0.14500
C1645       C  0.67844926  0.93766557  0.92834311    -0.15100
C1646       C  0.66802119  0.94027926  0.89350968    -0.30300
H1647       H  0.68790805  0.95904331  0.94710814     0.13900
H1648       H  0.65502607  0.91818498  0.87606811     0.14500
C1649       C  0.55771720  0.85212505  0.07919051    -0.15100
C1650       C  0.56017208  0.82520172  0.06860628    -0.30300
H1651       H  0.57924632  0.87696690  0.07671425     0.13900
H1652       H  0.53929898  0.80026284  0.07315404     0.14500
C1653       C  0.77565307  0.92656509  0.10166412    -0.15100
C1654       C  0.74350662  0.91857789  0.09696475    -0.30300
H1655       H  0.78421859  0.90923859  0.09303386     0.13900
H1656       H  0.73496381  0.93564948  0.10664197     0.14500
C1657       C  0.77861334  0.83929199  0.90006598    -0.15100
C1658       C  0.76661445  0.83049622  0.93566071    -0.30300
H1659       H  0.76798764  0.85037603  0.88115953     0.13900
H1660       H  0.77941435  0.82206885  0.95505564     0.14500
C1661       C  0.73567467  0.56038243  0.93000963    -0.15100
C1662       C  0.72351305  0.55859558  0.89492817    -0.30300
H1663       H  0.72370746  0.53865812  0.94856401     0.13900
H1664       H  0.73319670  0.58086088  0.87726163     0.14500
C1665       C  0.74841121  0.67015238  0.08420699    -0.15100
C1666       C  0.71699550  0.64552862  0.09085263    -0.30300
H1667       H  0.75583549  0.69532236  0.09357340     0.13900
H1668       H  0.70976618  0.62004508  0.08291245     0.14500
C1669       C  0.82936681  0.75183251  0.90651120    -0.15100
C1670       C  0.84915147  0.78463779  0.91286257    -0.30300
H1671       H  0.81083729  0.74364204  0.88412520     0.13900
H1672       H  0.86930856  0.79283649  0.93331437     0.14500
C1673       C  0.92181706  0.65569159  0.90248588    -0.15100
C1674       C  0.95304585  0.66635302  0.91547366    -0.30300
H1675       H  0.91518801  0.64615643  0.87388073     0.13900
H1676       H  0.95938303  0.67778267  0.94331824     0.14500
C1677       C  0.93243667  0.78731144  0.08388245    -0.15100
C1678       C  0.93174425  0.75880542  0.07295641    -0.30300
H1679       H  0.91025843  0.79011150  0.08116813     0.13900
H1680       H  0.95337762  0.75545610  0.07791343     0.14500
C1681       C  0.84835903  0.57619924  0.07984512    -0.15100
C1682       C  0.82225384  0.54650316  0.08934761    -0.30300
H1683       H  0.87375743  0.58095643  0.08458546     0.13900
H1684       H  0.79711566  0.54143130  0.08207549     0.14500
C1685       C  0.91663185  0.88549680  0.81703371    -0.12000
C1686       C  0.89254661  0.89080872  0.83641853     0.10100
C1687       C  0.89554834  0.92291114  0.83405150    -0.12000
C1688       C  0.92117704  0.94835352  0.81246296    -0.12000
C1689       C  0.94481481  0.94263222  0.79332812     0.10100
C1690       C  0.94277643  0.91126420  0.79654220    -0.12000
H1691       H  0.91531932  0.86131451  0.81718457     0.14100
H1692       H  0.87842654  0.92874090  0.84913334     0.14100
H1693       H  0.92249410  0.97253107  0.81060427     0.14100
H1694       H  0.96142215  0.90661655  0.78315287     0.14100
C1695       C  0.52575594  0.58823201  0.78733331    -0.12000
C1696       C  0.00104197  0.55538676  0.79488234     0.10100
C1697       C  0.97804255  0.54922689  0.82441971    -0.12000
C1698       C  0.97928255  0.57577706  0.84539462    -0.12000
C1699       C  0.50378508  0.60929439  0.83691401     0.10100
C1700       C  0.52684916  0.61485501  0.80749366    -0.12000
H1701       H  0.54384097  0.59343471  0.76480088     0.14100
H1702       H  0.95876070  0.52403276  0.83079675     0.14100
H1703       H  0.96129781  0.57032270  0.86806736     0.14100
H1704       H  0.54560988  0.63995170  0.79962374     0.14100
C1705       C  0.59570622  0.02833834  0.78466085    -0.12000
C1706       C  0.56251675  0.00385091  0.79229055     0.10100
C1707       C  0.55627831  0.97961700  0.82016398    -0.12000
C1708       C  0.58294398  0.97917483  0.83917151    -0.12000
C1709       C  0.61635318  0.00313034  0.83077857     0.10100
C1710       C  0.62230721  0.02785734  0.80345486    -0.12000
H1711       H  0.60107755  0.04758843  0.76363599     0.14100
H1712       H  0.53082635  0.96057736  0.82655580     0.14100
H1713       H  0.57738549  0.96019803  0.86060205     0.14100
H1714       H  0.64363328  0.54267419  0.79650752     0.14100
C1715       C  0.92360700  0.94982977  0.68682656    -0.12000
C1716       C  0.94674688  0.94435542  0.70718172     0.10100
C1717       C  0.94575154  0.91342929  0.70419211    -0.12000
C1718       C  0.92073064  0.88759831  0.68313800    -0.12000
C1719       C  0.89666240  0.89240729  0.66333752     0.10100
C1720       C  0.89893030  0.92423000  0.66498743    -0.12000
H1721       H  0.92447828  0.97384054  0.68810609     0.14100
H1722       H  0.96431113  0.90917267  0.71832096     0.14100
H1723       H  0.92003316  0.86368424  0.68306615     0.14100
H1724       H  0.88180858  0.92959133  0.64928288     0.14100
C1725       C  0.51750773  0.57000103  0.67770013    -0.12000
C1726       C  0.49643793  0.55543257  0.70917395     0.10100
C1727       C  0.97460100  0.56807768  0.71992228    -0.12000
C1728       C  0.97537255  0.59553389  0.70159773    -0.12000
C1729       C  0.49809242  0.61080257  0.67104185     0.10100
C1730       C  0.51845252  0.59740230  0.65892687    -0.12000
H1731       H  0.53368731  0.56061750  0.66784557     0.14100
H1732       H  0.95717385  0.55639932  0.74319317     0.14100
H1733       H  0.95885429  0.60455793  0.71171398     0.14100
H1734       H  0.53486075  0.60777548  0.63458716     0.14100
C1735       C  0.59512206  0.97736855  0.69122074    -0.12000
C1736       C  0.61301853  0.50053190  0.66730454     0.10100
C1737       C  0.60467159  0.52602400  0.66200957    -0.12000
C1738       C  0.57765368  0.52536542  0.68171832    -0.12000
C1739       C  0.55833950  0.49922683  0.70698741     0.10100
C1740       C  0.56875757  0.97708123  0.71167326    -0.12000
H1741       H  0.60100943  0.95746944  0.69610192     0.14100
H1742       H  0.61881457  0.54634667  0.64236724     0.14100
H1743       H  0.57258651  0.54584292  0.67805733     0.14100
H1744       H  0.55481070  0.95700588  0.73169662     0.14100
loop_ 
_geom_bond_atom_site_label_1 
_geom_bond_atom_site_label_2 
_geom_bond_distance 
_geom_bond_site_symmetry_2 
_ccdc_geom_bond_type 
C1            H2   1.111       .  S
C1            C6   1.541       .  S
C1         C1315   1.538       .  S
C1          C441   1.540   1_545  S
C3            H4   1.111       .  S
C3           C10   1.539       .  S
C3         C1317   1.542   1_455  S
C3          C880   1.540   1_455  S
C5          C437   1.540       .  S
C5            C8   1.375       .  D
C5          C381   1.488       .  S
C6            C9   1.380       .  D
C6          C388   1.490       .  S
C7         C1309   1.542       .  S
C7           C10   1.376       .  D
C7          C398   1.488       .  S
C8          C875   1.539       .  S
C8          C408   1.483       .  S
C9         C1311   1.543       .  S
C9         C1290   1.495       .  S
C10         C867   1.488       .  S
O11          C27   1.276       .  A
O11         Zn17   2.033       .  S
C12         C357   1.467       .  S
C12          O28   1.275       .  A
C12          O25   1.270       .  A
O13          C26   1.280       .  A
O13         Cd20   2.104       .  S
O14          C32   1.272       .  A
O14         Cd23   2.051   1_556  S
O15          C29   1.274       .  A
O15         Cd19   2.069       .  S
O16          C27   1.270       .  A
O16         Cd19   2.055       .  S
Zn17         O28   2.037       .  S
Zn17         O30   1.997   1_554  S
Zn17         O22   1.944       .  S
O18          C29   1.271       .  A
O18         Cd23   2.054       .  S
Cd19         O21   2.057   1_554  S
Cd19         O22   1.989       .  S
Cd20         O24   2.082       .  S
Cd20         O33   2.096       .  S
Cd20         O22   2.024   1_556  S
O21          C31   1.274       .  A
O22         Cd23   1.984       .  S
Cd23         O25   2.040       .  S
O24          C31   1.275       .  A
C26         C353   1.474       .  S
C26          O30   1.273       .  A
C27         C373   1.476       .  S
C29         C370   1.469       .  S
C31         C365   1.467       .  S
C32         C361   1.471       .  S
C32          O33   1.278       .  A
C34          C35   1.418       .  A
C34          C39   1.420       .  A
C34         C378   1.508       .  S
C35          C36   1.403       .  A
C35          H40   1.081       .  S
C36         C362   1.487       .  S
C36          C37   1.398       .  A
C37          C38   1.399       .  A
C37          H41   1.084       .  S
C38         C349   1.490       .  S
C38          C39   1.405       .  A
C39          H42   1.081       .  S
O43          C59   1.270       .  A
O43         Zn49   1.999       .  S
C44         C346   1.468       .  S
C44          O60   1.269       .  A
C44          O57   1.276       .  A
O45          C58   1.280       .  A
O45         Cd52   2.113       .  S
O46          C64   1.276       .  A
O46         Cd55   2.063   1_556  S
O47          C61   1.270       .  A
O47         Cd51   2.051       .  S
O48          C59   1.271       .  A
O48         Cd51   2.053       .  S
Zn49         O60   1.980       .  S
Zn49         O62   1.985   1_554  S
Zn49         O54   1.929       .  S
O50          C61   1.279       .  A
O50         Cd55   2.097       .  S
Cd51         O53   2.043   1_554  S
Cd51         O54   1.981       .  S
Cd52         O56   2.104       .  S
Cd52         O65   2.101       .  S
Cd52         O54   2.032   1_556  S
O53          C63   1.274       .  A
O54         Cd55   1.999       .  S
Cd55         O57   2.085       .  S
O56          C63   1.278       .  A
C58         C337   1.474       .  S
C58          O62   1.270       .  A
C59         C342   1.464       .  S
C61         C334   1.479       .  S
C63         C329   1.485       .  S
C64         C350   1.475       .  S
C64          O65   1.279       .  A
C66          C67   1.413       .  A
C66          C71   1.411       .  A
C66         C323   1.490       .  S
C67          C68   1.409       .  A
C67          H72   1.083       .  S
C68         C333   1.483       .  S
C68          C69   1.394       .  A
C69          C70   1.402       .  A
C69          H73   1.084       .  S
C70         C358   1.483       .  S
C70          C71   1.399       .  A
C71          H74   1.083       .  S
C75          C76   1.410       .  A
C75         C516   1.412   1_545  A
C75         C837   1.491       .  S
C76          C77   1.400       .  A
C76          H81   1.083       .  S
C77         C354   1.486       .  S
C77         C514   1.404       .  A
C78          C79   1.405       .  A
C78         C513   1.404       .  A
C78          H82   1.083       .  S
C79         C338   1.488       .  S
C79          C80   1.403       .  A
C80         C511   1.412       .  A
C80          H83   1.083       .  S
C84          C89   1.413   1_655  A
C84         C957   1.417       .  A
C84         C310   1.495       .  S
C85          C86   1.402       .  A
C85         C956   1.415       .  A
C85          H90   1.083       .  S
C86         C369   1.485       .  S
C86         C959   1.396       .  A
C87          C88   1.396   1_655  A
C87         C958   1.395       .  A
C87          H91   1.081       .  S
C88         C341   1.481       .  S
C88          C89   1.401       .  A
C89          H92   1.082       .  S
C93          C94   1.414       .  A
C93         C970   1.409   1_455  A
C93         C391   1.486       .  S
C94          C95   1.408       .  A
C94          H99   1.083       .  S
C95         C330   1.474       .  S
C95          C96   1.397   1_455  A
C96         C969   1.396       .  A
C96         H100   1.085       .  S
C97         C366   1.473       .  S
C97          C98   1.395       .  A
C97         C968   1.395       .  A
C98         C965   1.410       .  A
C98         H101   1.084       .  S
C102        C107   1.408       .  A
C102        C539   1.407       .  A
C102        C300   1.481       .  S
C103        C104   1.407       .  A
C103        C538   1.407   1_545  A
C103        H108   1.083       .  S
C104        C374   1.483       .  S
C104        C541   1.399   1_545  A
C105        C106   1.406       .  A
C105        C540   1.398       .  A
C105        H109   1.084       .  S
C106        C345   1.483       .  S
C106        C107   1.399       .  A
C107        H110   1.084       .  S
O111        C127   1.268       .  A
O111       Zn117   1.992       .  S
C112        C292   1.466       .  S
C112        O128   1.268       .  A
C112        O125   1.273       .  A
O113        C126   1.278       .  A
O113       Cd120   2.104       .  S
O114        C132   1.274       .  A
O114       Cd123   2.066       .  S
O115        C129   1.277       .  A
O115       Cd119   2.078       .  S
O116        C127   1.278       .  A
O116       Cd119   2.094       .  S
Zn117       O128   1.984       .  S
Zn117       O130   1.960       .  S
Zn117       O122   1.924       .  S
O118        C129   1.275       .  A
O118       Cd123   2.071       .  S
Cd119       O121   2.068       .  S
Cd119       O122   1.996       .  S
Cd120       O124   2.093       .  S
Cd120       O133   2.089       .  S
Cd120       O122   2.028       .  S
O121        C131   1.275       .  A
O122       Cd123   1.999       .  S
Cd123       O125   2.071       .  S
O124        C131   1.278       .  A
C126        C275   1.466       .  S
C126        O130   1.267       .  A
C127        C279   1.479       .  S
C129        C287   1.476       .  S
C131        C283   1.475       .  S
C132        C295   1.474       .  S
C132        O133   1.276       .  A
C134        C135   1.417       .  A
C134        C139   1.416       .  A
C134        C411   1.506       .  S
C135        C136   1.403       .  A
C135        H140   1.081       .  S
C136        C296   1.479       .  S
C136        C137   1.397       .  A
C137        C138   1.401       .  A
C137        H141   1.084       .  S
C138        C272   1.485       .  S
C138        C139   1.403       .  A
C139        H142   1.081       .  S
O143        C159   1.279       .  A
O143       Zn149   2.060       .  S
C144        C255   1.473       .  S
C144        O160   1.278       .  A
C144        O157   1.270       .  A
O145        C158   1.277       .  A
O145       Cd152   2.093       .  S
O146        C164   1.272       .  A
O146       Cd155   2.052       .  S
O147        C161   1.272       .  A
O147       Cd151   2.059       .  S
O148        C159   1.271       .  A
O148       Cd151   2.057       .  S
Zn149       O160   2.051       .  S
Zn149       O162   2.034       .  S
Zn149       O154   1.950       .  S
O150        C161   1.273       .  A
O150       Cd155   2.066       .  S
Cd151       O153   2.055       .  S
Cd151       O154   1.994       .  S
Cd152       O156   2.090       .  S
Cd152       O165   2.093       .  S
Cd152       O154   2.023       .  S
O153        C163   1.274       .  A
O154       Cd155   1.991       .  S
Cd155       O157   2.041       .  S
O156        C163   1.277       .  A
C158        C252   1.488       .  S
C158        O162   1.279       .  A
C159        C267   1.482       .  S
C161        C263   1.470       .  S
C163        C260   1.472       .  S
C164        C271   1.473       .  S
C164        O165   1.276       .  A
C166        C171   1.415       .  A
C166        C603   1.407   1_545  A
C166        C428   1.490       .  S
C167        C168   1.396       .  A
C167        C602   1.407       .  A
C167        H172   1.084       .  S
C168        C259   1.473       .  S
C168        C605   1.398       .  A
C169        C170   1.405   1_565  A
C169        C604   1.396       .  A
C169        H173   1.084       .  S
C170        C284   1.489       .  S
C170        C171   1.410       .  A
C171        H174   1.083       .  S
C175        C176   1.418   1_655  A
C175       C1052   1.412       .  A
C175        C421   1.492       .  S
C176        C177   1.408       .  A
C176        H181   1.083       .  S
C177        C251   1.482       .  S
C177        C178   1.394   1_455  A
C178       C1051   1.401       .  A
C178        H182   1.085       .  S
C179        C276   1.481       .  S
C179        C180   1.397       .  A
C179       C1050   1.401       .  A
C180       C1047   1.411       .  A
C180        H183   1.083       .  S
C184        C189   1.407       .  A
C184       C1057   1.414       .  A
C184        C242   1.490       .  S
C185        C186   1.413       .  A
C185       C1056   1.416       .  A
C185        H190   1.083       .  S
C186        C268   1.494       .  S
C186       C1059   1.402       .  A
C187        C188   1.401       .  A
C187       C1058   1.401       .  A
C187        H191   1.082       .  S
C188        C291   1.480       .  S
C188        C189   1.396       .  A
C189        H192   1.084       .  S
C193        C194   1.408       .  A
C193        C198   1.408       .  A
C193        C235   1.485       .  S
C194        C195   1.399       .  A
C194        H199   1.084       .  S
C195        C256   1.485       .  S
C195        C196   1.406       .  A
C196        C197   1.406       .  A
C196        H200   1.081       .  S
C197        C288   1.488       .  S
C197        C198   1.403       .  A
C198        H201   1.084       .  S
C202        C203   1.413   1_565  A
C202        C643   1.408       .  A
C202        C222   1.489       .  S
C203        C204   1.408       .  A
C203        H208   1.083       .  S
C204        C280   1.482       .  S
C204        C205   1.394   1_545  A
C205        C642   1.402       .  A
C205        H209   1.081       .  S
C206        C264   1.488       .  S
C206        C207   1.403       .  A
C206        C641   1.403       .  A
C207        C638   1.411       .  A
C207        H210   1.083       .  S
C211        H212   1.110       .  S
C211        C217   1.538       .  S
C211        C216   1.540       .  S
C211       C1523   1.540       .  S
C213        H214   1.111       .  S
C213        C219   1.542       .  S
C213        C220   1.539       .  S
C213       C1526   1.538       .  S
C215       C1519   1.540   1_455  S
C215        C218   1.379       .  D
C215        C320   1.486       .  S
C216        C219   1.378       .  D
C216        C303   1.493       .  S
C217        C220   1.374       .  D
C217        C313   1.483       .  S
C218       C1521   1.535   1_455  S
C218        C232   1.487       .  S
C219        C225   1.491       .  S
C220        C245   1.488       .  S
C221        C226   1.401       .  A
C221        C658   1.410       .  A
C221        H227   1.083       .  S
C222        C223   1.406   1_565  A
C222        C657   1.408       .  A
C223        C224   1.400       .  A
C223        H228   1.083       .  S
C224        C661   1.402   1_545  A
C224        H229   1.076       .  S
C225        C226   1.404       .  A
C225        C660   1.403       .  A
C226        H230   1.083       .  S
C231        C232   1.402       .  A
C231        C236   1.394       .  A
C231        H237   1.078       .  S
C232        C233   1.405       .  A
C233        C234   1.399       .  A
C233        H238   1.083       .  S
C234        C235   1.407       .  A
C234        H239   1.083       .  S
C235        C236   1.404       .  A
C236        H240   1.083       .  S
C241        C242   1.408       .  A
C241        C246   1.397       .  A
C241        H247   1.083       .  S
C242       C1115   1.406       .  A
C243        C244   1.403       .  A
C243       C1114   1.406       .  A
C243        H248   1.083       .  S
C244       C1117   1.406   1_455  A
C244        H249   1.083       .  S
C245        C246   1.403       .  A
C245       C1116   1.405       .  A
C246        H250   1.082       .  S
C251        C252   1.344       .  D
C251        H253   1.087       .  S
C252        H254   1.086       .  S
C255        C256   1.342       .  D
C255        H257   1.087       .  S
C256        H258   1.087       .  S
C259        C260   1.342       .  D
C259        H261   1.088       .  S
C260        H262   1.086       .  S
C263        C264   1.347       .  D
C263        H265   1.084       .  S
C264        H266   1.087       .  S
C267        C268   1.356       .  D
C267        H269   1.085       .  S
C268        H270   1.086       .  S
C271        C272   1.345       .  D
C271        H273   1.088       .  S
C272        H274   1.086       .  S
C275        C276   1.340       .  D
C275        H277   1.089       .  S
C276        H278   1.086       .  S
C279        C280   1.339       .  D
C279        H281   1.087       .  S
C280        H282   1.088       .  S
C283        C284   1.348       .  D
C283        H285   1.087       .  S
C284        H286   1.086       .  S
C287        C288   1.347       .  D
C287        H289   1.085       .  S
C288        H290   1.087       .  S
C291        C292   1.342       .  D
C291        H293   1.087       .  S
C292        H294   1.087       .  S
C295        C296   1.345       .  D
C295        H297   1.086       .  S
C296        H298   1.087       .  S
C299        C300   1.404       .  A
C299        C304   1.398       .  A
C299        H305   1.083       .  S
C300        C737   1.403       .  A
C301        C302   1.394       .  A
C301        C736   1.403   1_565  A
C301        H306   1.083       .  S
C302        C739   1.402   1_565  A
C302        H307   1.076       .  S
C303        C304   1.407       .  A
C303        C738   1.404       .  A
C304        H308   1.082       .  S
C309        C314   1.395       .  A
C309       C1182   1.408       .  A
C309        H315   1.082       .  S
C310        C311   1.412   1_655  A
C310       C1181   1.407       .  A
C311        C312   1.402       .  A
C311        H316   1.082       .  S
C312       C1185   1.401   1_455  A
C312        H317   1.083       .  S
C313        C314   1.398       .  A
C313       C1184   1.402       .  A
C314        H318   1.077       .  S
C319        C320   1.405       .  A
C319        C324   1.400       .  A
C319        H325   1.083       .  S
C320        C321   1.401       .  A
C321        C322   1.397       .  A
C321        H326   1.083       .  S
C322        C323   1.408       .  A
C322        H327   1.083       .  S
C323        C324   1.407       .  A
C324        H328   1.083       .  S
C329        C330   1.345       .  D
C329        H331   1.086       .  S
C330        H332   1.088       .  S
C333        C334   1.340       .  D
C333        H335   1.087       .  S
C334        H336   1.086       .  S
C337        C338   1.343       .  D
C337        H339   1.088       .  S
C338        H340   1.086       .  S
C341        C342   1.347       .  D
C341        H343   1.087       .  S
C342        H344   1.086       .  S
C345        C346   1.342       .  D
C345        H347   1.086       .  S
C346        H348   1.087       .  S
C349        C350   1.349       .  D
C349        H351   1.086       .  S
C350        H352   1.087       .  S
C353        C354   1.343       .  D
C353        H355   1.088       .  S
C354        H356   1.086       .  S
C357        C358   1.342       .  D
C357        H359   1.087       .  S
C358        H360   1.087       .  S
C361        C362   1.346       .  D
C361        H363   1.087       .  S
C362        H364   1.086       .  S
C365        C366   1.341       .  D
C365        H367   1.086       .  S
C366        H368   1.087       .  S
C369        C370   1.349       .  D
C369        H371   1.086       .  S
C370        H372   1.085       .  S
C373        C374   1.342       .  D
C373        H375   1.086       .  S
C374        H376   1.087       .  S
C377        C378   1.412       .  A
C377        C382   1.400       .  A
C377        H383   1.081       .  S
C378        C379   1.413       .  A
C379        C380   1.402       .  A
C379        H384   1.081       .  S
C380        C381   1.400       .  A
C380        H385   1.081       .  S
C381        C382   1.401       .  A
C382        H386   1.080       .  S
C387        C392   1.400       .  A
C387       C1260   1.407       .  A
C387        H393   1.083       .  S
C388        C389   1.400       .  A
C388       C1259   1.408       .  A
C389        C390   1.398       .  A
C389        H394   1.082       .  S
C390       C1263   1.409       .  A
C390        H395   1.083       .  S
C391        C392   1.404       .  A
C391       C1262   1.408   1_455  A
C392        H396   1.083       .  S
C397        C398   1.405       .  A
C397        C402   1.398       .  A
C397        H403   1.083       .  S
C398        C399   1.401       .  A
C399        C400   1.402       .  A
C399        H404   1.083       .  S
C400        C401   1.410       .  A
C400        H405   1.083       .  S
C401        C402   1.406       .  A
C401        C511   1.493       .  S
C402        H842   1.082       .  S
H406        C838   1.083       .  S
C407        C408   1.399       .  A
C407        C412   1.402       .  A
C407        H413   1.083       .  S
C408        C409   1.399       .  A
C409        C410   1.398       .  A
C409        H414   1.082       .  S
C410        C411   1.412       .  A
C410        H415   1.081       .  S
C411        C412   1.414       .  A
C412        H416   1.081       .  S
C417        C418   1.403   1_455  A
C417        C422   1.400       .  A
C417        H423   1.078       .  S
C418        C881   1.496   1_655  S
C418       C1291   1.407       .  A
C419        C420   1.399       .  A
C419       C1290   1.406       .  A
C419        H424   1.083       .  S
C420       C1293   1.408       .  A
C420        H425   1.082       .  S
C421        C422   1.406   1_655  A
C421       C1292   1.407       .  A
C422        H426   1.083       .  S
C427        C432   1.396       .  A
C427        C864   1.409       .  A
C427        H433   1.083       .  S
C428        C429   1.407       .  A
C428        C863   1.409   1_545  A
C429        C430   1.401       .  A
C429        H434   1.082       .  S
C430        C431   1.402       .  A
C430        H435   1.078       .  S
C431        C446   1.484       .  S
C431        C868   1.401   1_545  A
C432        C867   1.402       .  A
C432        H436   1.083       .  S
C437        H438   1.111       .  S
C437        C879   1.542       .  S
C437        C442   1.541       .  S
C439        H440   1.111       .  S
C439        C881   1.543       .  S
C439       C1316   1.541   1_445  S
C439        C446   1.539       .  S
C441        C444   1.376       .  D
C441        C817   1.489       .  S
C442        C445   1.381       .  D
C442        C824   1.492       .  S
C443        C873   1.536   1_545  S
C443        C446   1.375       .  D
C443        C834   1.485       .  S
C444       C1311   1.542   1_565  S
C444        C844   1.486       .  S
C445        C875   1.543       .  S
C445       C1726   1.495       .  S
O447        C463   1.277       .  A
O447       Zn453   2.036       .  S
C448        C793   1.471       .  S
C448        O464   1.277       .  A
C448        O461   1.272       .  A
O449        C462   1.278       .  A
O449       Cd456   2.099       .  S
O450        C468   1.275       .  A
O450       Cd459   2.062   1_556  S
O451        C465   1.273       .  A
O451       Cd455   2.067       .  S
O452        C463   1.270       .  A
O452       Cd455   2.052       .  S
Zn453       O464   2.046       .  S
Zn453       O466   2.015   1_554  S
Zn453       O458   1.954   1_554  S
O454        C465   1.271       .  A
O454       Cd459   2.063       .  S
Cd455       O457   2.056   1_554  S
Cd455       O458   1.988   1_554  S
Cd456       O460   2.109       .  S
Cd456       O469   2.104       .  S
Cd456       O458   2.024       .  S
O457        C467   1.276       .  A
O458       Cd459   1.993   1_556  S
Cd459       O461   2.049       .  S
O460        C467   1.279       .  A
C462        C789   1.478       .  S
C462        O466   1.274       .  A
C463        C809   1.475       .  S
C465        C806   1.471       .  S
C467        C801   1.488       .  S
C468        C797   1.479       .  S
C468        O469   1.279       .  A
C470        C471   1.416       .  A
C470        C475   1.419       .  A
C470        C814   1.510       .  S
C471        C472   1.403       .  A
C471        H476   1.081       .  S
C472        C798   1.480       .  S
C472        C473   1.397       .  A
C473        C474   1.405       .  A
C473        H477   1.084       .  S
C474        C785   1.495       .  S
C474        C475   1.409       .  A
C475        H478   1.081       .  S
O479        C495   1.271       .  A
O479       Zn485   2.003       .  S
C480        C782   1.467       .  S
C480        O496   1.269       .  A
C480        O493   1.276       .  A
O481        C494   1.279       .  A
O481       Cd488   2.111       .  S
O482        C500   1.276       .  A
O482       Cd491   2.065   1_556  S
O483        C497   1.270       .  A
O483       Cd487   2.056       .  S
O484        C495   1.272       .  A
O484       Cd487   2.059       .  S
Zn485       O496   1.982       .  S
Zn485       O498   1.992   1_554  S
Zn485       O490   1.936       .  S
O486        C497   1.279       .  A
O486       Cd491   2.099       .  S
Cd487       O489   2.048   1_554  S
Cd487       O490   1.988       .  S
Cd488       O492   2.096       .  S
Cd488       O501   2.115       .  S
Cd488       O490   2.031   1_556  S
O489        C499   1.273       .  A
O490       Cd491   2.000       .  S
Cd491       O493   2.081       .  S
O492        C499   1.277       .  A
C494        C773   1.475       .  S
C494        O498   1.270       .  A
C495        C778   1.467       .  S
C497        C770   1.482       .  S
C499        C765   1.470       .  S
C500        C786   1.481       .  S
C500        O501   1.281       .  A
C502        C503   1.416       .  A
C502        C507   1.415       .  A
C502        C759   1.499       .  S
C503        C504   1.408       .  A
C503        H508   1.082       .  S
C504        C769   1.485       .  S
C504        C505   1.393       .  A
C505        C506   1.403       .  A
C505        H509   1.083       .  S
C506        C794   1.491       .  S
C506        C507   1.404       .  A
C507        H510   1.083       .  S
C511        C512   1.412       .  A
C512        C513   1.403       .  A
C512        H517   1.083       .  S
C513        C790   1.489       .  S
C514        C515   1.405   1_545  A
C514        H518   1.083       .  S
C515        C774   1.491       .  S
C515        C516   1.406       .  A
C516        H519   1.083       .  S
C520       C1393   1.417       .  A
C520        C525   1.413   1_655  A
C520        C746   1.498       .  S
C521       C1392   1.416       .  A
C521        C522   1.403       .  A
C521        H526   1.083       .  S
C522        C805   1.486       .  S
C522       C1395   1.397       .  A
C523       C1394   1.397       .  A
C523        C524   1.397   1_655  A
C523        H527   1.081       .  S
C524        C777   1.484       .  S
C524        C525   1.402       .  A
C525        H528   1.082       .  S
C529        C530   1.411       .  A
C529       C1406   1.418   1_455  A
C529        C827   1.493       .  S
C530        C531   1.397       .  A
C530        H535   1.083       .  S
C531        C766   1.473       .  S
C531        C532   1.395       .  A
C532       C1405   1.399   1_455  A
C532        H536   1.085       .  S
C533        C802   1.483       .  S
C533       C1404   1.399       .  A
C533        C534   1.412       .  A
C534       C1401   1.418       .  A
C534        H537   1.083       .  S
C538        C543   1.405       .  A
C538        C736   1.480   1_565  S
C539        C540   1.406       .  A
C539        H544   1.082       .  S
C540        C810   1.484       .  S
C541        C542   1.405       .  A
C541        H545   1.083       .  S
C542        C781   1.480       .  S
C542        C543   1.397       .  A
C543        H546   1.084       .  S
O547        C563   1.268       .  A
O547       Zn553   1.999       .  S
C548        C728   1.465       .  S
C548        O564   1.268       .  A
C548        O561   1.273       .  A
O549        C562   1.279       .  A
O549       Cd556   2.109       .  S
O550        C568   1.275       .  A
O550       Cd559   2.072       .  S
O551        C565   1.277       .  A
O551       Cd555   2.083       .  S
O552        C563   1.278       .  A
O552       Cd555   2.099       .  S
Zn553       O564   1.981       .  S
Zn553       O566   1.960       .  S
Zn553       O558   1.926       .  S
O554        C565   1.276       .  A
O554       Cd559   2.071       .  S
Cd555       O557   2.067       .  S
Cd555       O558   1.999       .  S
Cd556       O560   2.106       .  S
Cd556       O569   2.102       .  S
Cd556       O558   2.030       .  S
O557        C567   1.275       .  A
O558       Cd559   2.001       .  S
Cd559       O561   2.070       .  S
O560        C567   1.280       .  A
C562        C711   1.467       .  S
C562        O566   1.268       .  A
C563        C715   1.482       .  S
C565        C723   1.477       .  S
C567        C719   1.479       .  S
C568        C731   1.480       .  S
C568        O569   1.278       .  A
C570        C571   1.416       .  A
C570        C575   1.414       .  A
C570        C847   1.501       .  S
C571        C572   1.405       .  A
C571        H576   1.083       .  S
C572        C732   1.484       .  S
C572        C573   1.399       .  A
C573        C574   1.404       .  A
C573        H577   1.084       .  S
C574        C708   1.486       .  S
C574        C575   1.404       .  A
C575        H578   1.082       .  S
O579        C595   1.278       .  A
O579       Zn585   2.058       .  S
C580        C691   1.470       .  S
C580        O596   1.277       .  A
C580        O593   1.270       .  A
O581        C594   1.277       .  A
O581       Cd588   2.091       .  S
O582        C600   1.271       .  A
O582       Cd591   2.046       .  S
O583        C597   1.271       .  A
O583       Cd587   2.053       .  S
O584        C595   1.271       .  A
O584       Cd587   2.054       .  S
Zn585       O596   2.040       .  S
Zn585       O598   2.028       .  S
Zn585       O590   1.947       .  S
O586        C597   1.272       .  A
O586       Cd591   2.056       .  S
Cd587       O589   2.047       .  S
Cd587       O590   1.991       .  S
Cd588       O592   2.087       .  S
Cd588       O601   2.103       .  S
Cd588       O590   2.023       .  S
O589        C599   1.274       .  A
O590       Cd591   1.986       .  S
Cd591       O593   2.040       .  S
O592        C599   1.276       .  A
C594        C688   1.486       .  S
C594        O598   1.279       .  A
C595        C703   1.481       .  S
C597        C699   1.466       .  S
C599        C696   1.471       .  S
C600        C707   1.474       .  S
C600        O601   1.277       .  A
C602        C607   1.416       .  A
C602        C864   1.495       .  S
C603        C604   1.394       .  A
C603        H608   1.084       .  S
C604        C695   1.467       .  S
C605        C606   1.407       .  A
C605        H609   1.084       .  S
C606        C720   1.493       .  S
C606        C607   1.411       .  A
C607        H610   1.083       .  S
C611        C612   1.417   1_655  A
C611       C1488   1.413       .  A
C611        C857   1.494       .  S
C612        C613   1.406       .  A
C612        H617   1.083       .  S
C613        C687   1.479       .  S
C613        C614   1.394   1_455  A
C614       C1487   1.402       .  A
C614        H618   1.085       .  S
C615        C712   1.484       .  S
C615       C1486   1.402       .  A
C615        C616   1.399       .  A
C616       C1483   1.412       .  A
C616        H619   1.083       .  S
C620       C1493   1.415       .  A
C620        C625   1.406       .  A
C620        C678   1.488       .  S
C621       C1492   1.415       .  A
C621        C622   1.412       .  A
C621        H626   1.083       .  S
C622        C704   1.493       .  S
C622       C1495   1.403   1_455  A
C623       C1494   1.402       .  A
C623        C624   1.401       .  A
C623        H627   1.082       .  S
C624        C727   1.477       .  S
C624        C625   1.394       .  A
C625        H628   1.084       .  S
C629        C630   1.407       .  A
C629        C634   1.410       .  A
C629        C671   1.486       .  S
C630        C631   1.396       .  A
C630        H635   1.083       .  S
C631        C692   1.481       .  S
C631        C632   1.404       .  A
C632        C633   1.406       .  A
C632        H636   1.081       .  S
C633        C724   1.490       .  S
C633        C634   1.405       .  A
C634        H637   1.084       .  S
C638        C639   1.416       .  A
C638        C658   1.496       .  S
C639        C640   1.410       .  A
C639        H644   1.083       .  S
C640        C716   1.486       .  S
C640        C641   1.395       .  A
C641        H645   1.082       .  S
C642        C700   1.484       .  S
C642        C643   1.402       .  A
C643        H646   1.084       .  S
C647        H648   1.110       .  S
C647        C653   1.538   1_545  S
C647        C652   1.536       .  S
C647       C1087   1.538       .  S
C649        H650   1.111       .  S
C649        C655   1.540       .  S
C649       C1090   1.537       .  S
C649        C656   1.537   1_545  S
C651       C1083   1.542   1_455  S
C651        C654   1.379       .  D
C651        C756   1.493       .  S
C652        C655   1.376       .  D
C652        C739   1.492       .  S
C653        C656   1.374       .  D
C653        C749   1.481       .  S
C654       C1085   1.538   1_455  S
C654        C668   1.486       .  S
C655        C661   1.485   1_545  S
C656        C681   1.486       .  S
C657        C662   1.399       .  A
C657        H663   1.082       .  S
C658        C659   1.407       .  A
C659        C660   1.402       .  A
C659        H664   1.082       .  S
C660        H665   1.078       .  S
C661        C662   1.403       .  A
C662        H666   1.083       .  S
C667        C668   1.401       .  A
C667        C672   1.394       .  A
C667        H673   1.079       .  S
C668        C669   1.406       .  A
C669        C670   1.399       .  A
C669        H674   1.083       .  S
C670        C671   1.406       .  A
C670        H675   1.083       .  S
C671        C672   1.405       .  A
C672        H676   1.083       .  S
C677        C678   1.408       .  A
C677        C682   1.396       .  A
C677        H683   1.083       .  S
C678       C1551   1.405       .  A
C679       C1550   1.405       .  A
C679        C680   1.402       .  A
C679        H684   1.083       .  S
C680       C1553   1.406   1_455  A
C680        H685   1.083       .  S
C681       C1552   1.405       .  A
C681        C682   1.402       .  A
C682        H686   1.082       .  S
C687        C688   1.343       .  D
C687        H689   1.087       .  S
C688        H690   1.086       .  S
C691        C692   1.341       .  D
C691        H693   1.087       .  S
C692        H694   1.087       .  S
C695        C696   1.341       .  D
C695        H697   1.087       .  S
C696        H698   1.087       .  S
C699        C700   1.345       .  D
C699        H701   1.084       .  S
C700        H702   1.087       .  S
C703        C704   1.356       .  D
C703        H705   1.085       .  S
C704        H706   1.086       .  S
C707        C708   1.344       .  D
C707        H709   1.088       .  S
C708        H710   1.086       .  S
C711        C712   1.341       .  D
C711        H713   1.088       .  S
C712        H714   1.086       .  S
C715        C716   1.340       .  D
C715        H717   1.087       .  S
C716        H718   1.087       .  S
C719        C720   1.349       .  D
C719        H721   1.087       .  S
C720        H722   1.086       .  S
C723        C724   1.348       .  D
C723        H725   1.085       .  S
C724        H726   1.087       .  S
C727        C728   1.340       .  D
C727        H729   1.086       .  S
C728        H730   1.087       .  S
C731        C732   1.348       .  D
C731        H733   1.086       .  S
C732        H734   1.086       .  S
C735        C736   1.403       .  A
C735        C740   1.399       .  A
C735        H741   1.083       .  S
C737        C738   1.395       .  A
C737        H742   1.083       .  S
C738        H743   1.076       .  S
C739        C740   1.408       .  A
C740        H744   1.082       .  S
C745       C1618   1.407       .  A
C745        C750   1.395       .  A
C745        H751   1.082       .  S
C746       C1617   1.408       .  A
C746        C747   1.412   1_655  A
C747        C748   1.402       .  A
C747        H752   1.082       .  S
C748       C1621   1.401   1_455  A
C748        H753   1.083       .  S
C749       C1620   1.401       .  A
C749        C750   1.399       .  A
C750        H754   1.078       .  S
C755        C756   1.406       .  A
C755        C760   1.402       .  A
C755        H761   1.083       .  S
C756        C757   1.403       .  A
C757        C758   1.401       .  A
C757        H762   1.083       .  S
C758        C759   1.410       .  A
C758        H763   1.082       .  S
C759        C760   1.409       .  A
C760        H764   1.082       .  S
C765        C766   1.343       .  D
C765        H767   1.086       .  S
C766        H768   1.087       .  S
C769        C770   1.340       .  D
C769        H771   1.087       .  S
C770        H772   1.087       .  S
C773        C774   1.346       .  D
C773        H775   1.087       .  S
C774        H776   1.086       .  S
C777        C778   1.348       .  D
C777        H779   1.087       .  S
C778        H780   1.085       .  S
C781        C782   1.340       .  D
C781        H783   1.087       .  S
C782        H784   1.086       .  S
C785        C786   1.349       .  D
C785        H787   1.086       .  S
C786        H788   1.087       .  S
C789        C790   1.346       .  D
C789        H791   1.087       .  S
C790        H792   1.086       .  S
C793        C794   1.346       .  D
C793        H795   1.085       .  S
C794        H796   1.086       .  S
C797        C798   1.347       .  D
C797        H799   1.087       .  S
C798        H800   1.086       .  S
C801        C802   1.346       .  D
C801        H803   1.086       .  S
C802        H804   1.088       .  S
C805        C806   1.349       .  D
C805        H807   1.086       .  S
C806        H808   1.087       .  S
C809        C810   1.342       .  D
C809        H811   1.085       .  S
C810        H812   1.087       .  S
C813        C814   1.413       .  A
C813        C818   1.401       .  A
C813        H819   1.081       .  S
C814        C815   1.413       .  A
C815        C816   1.404       .  A
C815        H820   1.081       .  S
C816        C817   1.401       .  A
C816        H821   1.082       .  S
C817        C818   1.400       .  A
C818        H822   1.081       .  S
C823       C1696   1.403       .  A
C823        C828   1.395       .  A
C823        H829   1.083       .  S
C824       C1695   1.403       .  A
C824        C825   1.404       .  A
C825        C826   1.405       .  A
C825        H830   1.080       .  S
C826       C1699   1.408       .  A
C826        H831   1.082       .  S
C827       C1698   1.409   1_455  A
C827        C828   1.407       .  A
C828        H832   1.083       .  S
C833        C834   1.403       .  A
C833        C838   1.395       .  A
C833        H839   1.083       .  S
C834        C835   1.402   1_545  A
C835        C836   1.402       .  A
C835        H840   1.083       .  S
C836        C837   1.409   1_565  A
C836        H841   1.082       .  S
C837        C838   1.406       .  A
C843        C844   1.401       .  A
C843        C848   1.403       .  A
C843        H849   1.083       .  S
C844        C845   1.401       .  A
C845        C846   1.399       .  A
C845        H850   1.081       .  S
C846        C847   1.409       .  A
C846        H851   1.082       .  S
C847        C848   1.413       .  A
C848        H852   1.082       .  S
C853        C854   1.403   1_455  A
C853        C858   1.400       .  A
C853        H859   1.079       .  S
C854       C1317   1.494       .  S
C854       C1727   1.406       .  A
C855       C1726   1.406       .  A
C855        C856   1.398       .  A
C855        H860   1.083       .  S
C856       C1729   1.408       .  A
C856        H861   1.082       .  S
C857       C1728   1.408       .  A
C857        C858   1.408   1_655  A
C858        H862   1.082       .  S
C863        C868   1.395       .  A
C863        H869   1.083       .  S
C864        C865   1.408       .  A
C865        C866   1.404       .  A
C865        H870   1.082       .  S
C866        C867   1.403       .  A
C866        H871   1.079       .  S
C868        H872   1.083       .  S
C873        H874   1.111       .  S
C873        C878   1.539   1_565  S
C873       C1313   1.538   1_455  S
C875        H876   1.111       .  S
C875        C882   1.539       .  S
C877       C1309   1.540   1_655  S
C877        C880   1.375       .  D
C877       C1253   1.489       .  S
C878        C881   1.380       .  D
C878       C1260   1.486       .  S
C879        C882   1.376       .  D
C879       C1270   1.486       .  S
C880       C1280   1.483       .  S
C882       C1739   1.490       .  S
O883        C899   1.276       .  A
O883       Zn889   2.028       .  S
C884       C1229   1.466       .  S
C884        O900   1.275       .  A
C884        O897   1.269       .  A
O885        C898   1.279       .  A
O885       Cd892   2.102       .  S
O886        C904   1.271       .  A
O886       Cd895   2.051   1_556  S
O887        C901   1.275       .  A
O887       Cd891   2.073       .  S
O888        C899   1.271       .  A
O888       Cd891   2.062       .  S
Zn889       O900   2.033       .  S
Zn889       O902   1.996   1_554  S
Zn889       O894   1.942       .  S
O890        C901   1.270       .  A
O890       Cd895   2.051       .  S
Cd891       O893   2.060   1_554  S
Cd891       O894   1.990       .  S
Cd892       O896   2.076       .  S
Cd892       O905   2.096       .  S
Cd892       O894   2.023   1_556  S
O893        C903   1.275       .  A
O894       Cd895   1.984       .  S
Cd895       O897   2.037       .  S
O896        C903   1.274       .  A
C898       C1225   1.473       .  S
C898        O902   1.272       .  A
C899       C1245   1.477       .  S
C901       C1242   1.469       .  S
C903       C1237   1.464       .  S
C904       C1233   1.471       .  S
C904        O905   1.277       .  A
C906        C907   1.419       .  A
C906        C911   1.419       .  A
C906       C1250   1.510       .  S
C907        C908   1.404       .  A
C907        H912   1.081       .  S
C908       C1234   1.488       .  S
C908        C909   1.398       .  A
C909        C910   1.399       .  A
C909        H913   1.084       .  S
C910       C1221   1.489       .  S
C910        C911   1.404       .  A
C911        H914   1.081       .  S
O915        C931   1.270       .  A
O915       Zn921   2.004       .  S
C916       C1218   1.469       .  S
C916        O932   1.269       .  A
C916        O929   1.276       .  A
O917        C930   1.280       .  A
O917       Cd924   2.114       .  S
O918        C936   1.275       .  A
O918       Cd927   2.061   1_556  S
O919        C933   1.270       .  A
O919       Cd923   2.053       .  S
O920        C931   1.271       .  A
O920       Cd923   2.051       .  S
Zn921       O932   1.983       .  S
Zn921       O934   1.986   1_554  S
Zn921       O926   1.932   1_554  S
O922        C933   1.279       .  A
O922       Cd927   2.098       .  S
Cd923       O925   2.045   1_554  S
Cd923       O926   1.981   1_554  S
Cd924       O928   2.108       .  S
Cd924       O937   2.099       .  S
Cd924       O926   2.033       .  S
O925        C935   1.274       .  A
O926       Cd927   2.001   1_556  S
Cd927       O929   2.088       .  S
O928        C935   1.278       .  A
C930       C1209   1.474       .  S
C930        O934   1.270       .  A
C931       C1214   1.465       .  S
C933       C1206   1.480       .  S
C935       C1201   1.486       .  S
C936       C1222   1.474       .  S
C936        O937   1.279       .  A
C938        C939   1.414       .  A
C938        C943   1.411       .  A
C938       C1195   1.490       .  S
C939        C940   1.409       .  A
C939        H944   1.082       .  S
C940       C1205   1.484       .  S
C940        C941   1.394       .  A
C941        C942   1.402       .  A
C941        H945   1.084       .  S
C942       C1230   1.481       .  S
C942        C943   1.398       .  A
C943        H946   1.083       .  S
C947        C948   1.411       .  A
C947       C1388   1.413   1_545  A
C947       C1709   1.492       .  S
C948        C949   1.401       .  A
C948        H953   1.083       .  S
C949       C1226   1.487       .  S
C949       C1386   1.404       .  A
C950       C1385   1.402       .  A
C950        C951   1.405       .  A
C950        H954   1.084       .  S
C951       C1210   1.490       .  S
C951        C952   1.405       .  A
C952       C1383   1.413       .  A
C952        H955   1.083       .  S
C956        C961   1.413       .  A
C956       C1182   1.496       .  S
C957        C958   1.403       .  A
C957        H962   1.082       .  S
C958       C1241   1.486       .  S
C959        C960   1.398       .  A
C959        H963   1.081       .  S
C960       C1213   1.483       .  S
C960        C961   1.402       .  A
C961        H964   1.083       .  S
C965        C966   1.416       .  A
C965       C1263   1.490       .  S
C966        C967   1.411       .  A
C966        H971   1.083       .  S
C967       C1202   1.480       .  S
C967        C968   1.399       .  A
C968        H972   1.085       .  S
C969       C1238   1.473       .  S
C969        C970   1.395       .  A
C970        H973   1.084       .  S
C974       C1411   1.407       .  A
C974        C979   1.408       .  A
C974       C1172   1.482       .  S
C975       C1410   1.406   1_545  A
C975        C976   1.406       .  A
C975        H980   1.083       .  S
C976       C1246   1.483       .  S
C976       C1413   1.399   1_545  A
C977       C1412   1.398       .  A
C977        C978   1.406       .  A
C977        H981   1.084       .  S
C978       C1217   1.484       .  S
C978        C979   1.400       .  A
C979        H982   1.084       .  S
O983        C999   1.268       .  A
O983       Zn989   1.991       .  S
C984       C1164   1.466       .  S
C984       O1000   1.268       .  A
C984        O997   1.273       .  A
O985        C998   1.278       .  A
O985       Cd992   2.107       .  S
O986       C1004   1.274       .  A
O986       Cd995   2.061       .  S
O987       C1001   1.276       .  A
O987       Cd991   2.076       .  S
O988        C999   1.277       .  A
O988       Cd991   2.089       .  S
Zn989      O1000   1.984       .  S
Zn989      O1002   1.962       .  S
Zn989       O994   1.925       .  S
O990       C1001   1.275       .  A
O990       Cd995   2.072       .  S
Cd991       O993   2.064       .  S
Cd991       O994   1.994       .  S
Cd992       O996   2.098       .  S
Cd992      O1005   2.093       .  S
Cd992       O994   2.029       .  S
O993       C1003   1.275       .  A
O994       Cd995   1.998       .  S
Cd995       O997   2.069       .  S
O996       C1003   1.278       .  A
C998       C1147   1.467       .  S
C998       O1002   1.268       .  A
C999       C1151   1.477       .  S
C1001      C1159   1.476       .  S
C1003      C1155   1.476       .  S
C1004      C1167   1.474       .  S
C1004      O1005   1.277       .  A
C1006      C1007   1.415       .  A
C1006      C1011   1.416       .  A
C1006      C1283   1.503       .  S
C1007      C1008   1.402       .  A
C1007      H1012   1.082       .  S
C1008      C1168   1.478       .  S
C1008      C1009   1.397       .  A
C1009      C1010   1.402       .  A
C1009      H1013   1.084       .  S
C1010      C1144   1.485       .  S
C1010      C1011   1.404       .  A
C1011      H1014   1.082       .  S
O1015      C1031   1.279       .  A
O1015     Zn1021   2.056       .  S
C1016      C1127   1.472       .  S
C1016      O1032   1.278       .  A
C1016      O1029   1.270       .  A
O1017      C1030   1.278       .  A
O1017     Cd1024   2.092       .  S
O1018      C1036   1.272       .  A
O1018     Cd1027   2.053       .  S
O1019      C1033   1.271       .  A
O1019     Cd1023   2.055       .  S
O1020      C1031   1.271       .  A
O1020     Cd1023   2.053       .  S
Zn1021     O1032   2.049       .  S
Zn1021     O1034   2.032       .  S
Zn1021     O1026   1.950       .  S
O1022      C1033   1.273       .  A
O1022     Cd1027   2.065       .  S
Cd1023     O1025   2.057       .  S
Cd1023     O1026   1.993       .  S
Cd1024     O1028   2.090       .  S
Cd1024     O1037   2.093       .  S
Cd1024     O1026   2.020       .  S
O1025      C1035   1.274       .  A
O1026     Cd1027   1.990       .  S
Cd1027     O1029   2.042       .  S
O1028      C1035   1.276       .  A
C1030      C1124   1.487       .  S
C1030      O1034   1.279       .  A
C1031      C1139   1.479       .  S
C1033      C1135   1.469       .  S
C1035      C1132   1.474       .  S
C1036      C1143   1.473       .  S
C1036      O1037   1.276       .  A
C1038      C1475   1.406   1_545  A
C1038      C1043   1.414       .  A
C1038      C1300   1.489       .  S
C1039      C1474   1.407       .  A
C1039      C1040   1.397       .  A
C1039      H1044   1.084       .  S
C1040      C1131   1.473       .  S
C1040      C1477   1.399       .  A
C1041      C1476   1.397       .  A
C1041      C1042   1.405   1_565  A
C1041      H1045   1.084       .  S
C1042      C1156   1.490       .  S
C1042      C1043   1.409       .  A
C1043      H1046   1.083       .  S
C1047      C1048   1.418       .  A
C1047      C1293   1.493       .  S
C1048      C1049   1.407       .  A
C1048      H1053   1.083       .  S
C1049      C1123   1.481       .  S
C1049      C1050   1.395       .  A
C1050      H1054   1.085       .  S
C1051      C1148   1.483       .  S
C1051      C1052   1.399       .  A
C1052      H1055   1.083       .  S
C1056      C1061   1.406   1_455  A
C1056      C1114   1.491       .  S
C1057      C1058   1.410       .  A
C1057      H1062   1.083       .  S
C1058      C1140   1.491       .  S
C1059      C1060   1.401   1_455  A
C1059      H1063   1.082   1_455  S
C1060      C1163   1.478       .  S
C1060      C1061   1.395       .  A
C1061      H1064   1.084       .  S
C1065      C1066   1.408       .  A
C1065      C1070   1.409       .  A
C1065      C1107   1.485       .  S
C1066      C1067   1.397       .  A
C1066      H1071   1.084       .  S
C1067      C1128   1.484       .  S
C1067      C1068   1.404       .  A
C1068      C1069   1.406       .  A
C1068      H1072   1.081       .  S
C1069      C1160   1.488       .  S
C1069      C1070   1.404       .  A
C1070      H1073   1.083       .  S
C1074      C1075   1.413   1_565  A
C1074      C1515   1.408       .  A
C1074      C1094   1.491       .  S
C1075      C1076   1.408       .  A
C1075      H1080   1.083       .  S
C1076      C1152   1.482       .  S
C1076      C1077   1.394   1_545  A
C1077      C1514   1.402       .  A
C1077      H1081   1.081       .  S
C1078      C1136   1.487       .  S
C1078      C1513   1.403       .  A
C1078      C1079   1.403       .  A
C1079      C1510   1.410       .  A
C1079      H1082   1.083       .  S
C1083      H1084   1.110       .  S
C1083      C1089   1.540       .  S
C1083      C1088   1.539       .  S
C1085      H1086   1.111       .  S
C1085      C1091   1.543       .  S
C1085      C1092   1.539       .  S
C1087      C1090   1.378       .  D
C1087      C1192   1.485       .  S
C1088      C1091   1.378       .  D
C1088      C1175   1.494       .  S
C1089      C1092   1.374       .  D
C1089      C1185   1.482       .  S
C1090      C1104   1.486       .  S
C1091      C1097   1.491       .  S
C1092      C1117   1.489       .  S
C1093      C1530   1.409       .  A
C1093      C1098   1.400       .  A
C1093      H1099   1.082       .  S
C1094      C1529   1.409       .  A
C1094      C1095   1.407   1_565  A
C1095      C1096   1.400       .  A
C1095      H1100   1.082       .  S
C1096      C1533   1.402   1_545  A
C1096      H1101   1.079       .  S
C1097      C1532   1.403       .  A
C1097      C1098   1.404       .  A
C1098      H1102   1.083       .  S
C1103      C1104   1.401       .  A
C1103      C1108   1.393       .  A
C1103      H1109   1.075       .  S
C1104      C1105   1.406       .  A
C1105      C1106   1.400       .  A
C1105      H1110   1.082       .  S
C1106      C1107   1.407       .  A
C1106      H1111   1.082       .  S
C1107      C1108   1.404       .  A
C1108      H1112   1.083       .  S
C1113      C1114   1.409   1_655  A
C1113      C1118   1.397       .  A
C1113      H1119   1.083       .  S
C1115      C1116   1.402       .  A
C1115      H1120   1.083       .  S
C1116      H1121   1.083       .  S
C1117      C1118   1.402       .  A
C1118      H1122   1.083       .  S
C1123      C1124   1.344       .  D
C1123      H1125   1.087       .  S
C1124      H1126   1.087       .  S
C1127      C1128   1.342       .  D
C1127      H1129   1.087       .  S
C1128      H1130   1.086       .  S
C1131      C1132   1.342       .  D
C1131      H1133   1.087       .  S
C1132      H1134   1.086       .  S
C1135      C1136   1.346       .  D
C1135      H1137   1.084       .  S
C1136      H1138   1.087       .  S
C1139      C1140   1.355       .  D
C1139      H1141   1.086       .  S
C1140      H1142   1.086       .  S
C1143      C1144   1.345       .  D
C1143      H1145   1.088       .  S
C1144      H1146   1.086       .  S
C1147      C1148   1.341       .  D
C1147      H1149   1.088       .  S
C1148      H1150   1.086       .  S
C1151      C1152   1.339       .  D
C1151      H1153   1.087       .  S
C1152      H1154   1.087       .  S
C1155      C1156   1.348       .  D
C1155      H1157   1.087       .  S
C1156      H1158   1.086       .  S
C1159      C1160   1.348       .  D
C1159      H1161   1.085       .  S
C1160      H1162   1.087       .  S
C1163      C1164   1.341       .  D
C1163      H1165   1.087       .  S
C1164      H1166   1.087       .  S
C1167      C1168   1.345       .  D
C1167      H1169   1.086       .  S
C1168      H1170   1.087       .  S
C1171      C1172   1.405       .  A
C1171      C1176   1.398       .  A
C1171      H1177   1.083       .  S
C1172      C1609   1.403       .  A
C1173      C1608   1.403   1_565  A
C1173      C1174   1.394       .  A
C1173      H1178   1.083       .  S
C1174      C1611   1.403   1_565  A
C1174      H1179   1.076       .  S
C1175      C1610   1.404       .  A
C1175      C1176   1.407       .  A
C1176      H1180   1.082       .  S
C1181      C1186   1.395       .  A
C1181      H1187   1.082       .  S
C1182      C1183   1.411       .  A
C1183      C1184   1.402       .  A
C1183      H1188   1.082       .  S
C1184      H1189   1.083       .  S
C1185      C1186   1.399       .  A
C1186      H1190   1.078       .  S
C1191      C1192   1.405       .  A
C1191      C1196   1.400       .  A
C1191      H1197   1.083       .  S
C1192      C1193   1.401       .  A
C1193      C1194   1.397       .  A
C1193      H1198   1.083       .  S
C1194      C1195   1.408       .  A
C1194      H1199   1.083       .  S
C1195      C1196   1.407       .  A
C1196      H1200   1.083       .  S
C1201      C1202   1.346       .  D
C1201      H1203   1.086       .  S
C1202      H1204   1.088       .  S
C1205      C1206   1.340       .  D
C1205      H1207   1.088       .  S
C1206      H1208   1.087       .  S
C1209      C1210   1.344       .  D
C1209      H1211   1.087       .  S
C1210      H1212   1.086       .  S
C1213      C1214   1.347       .  D
C1213      H1215   1.087       .  S
C1214      H1216   1.086       .  S
C1217      C1218   1.342       .  D
C1217      H1219   1.087       .  S
C1218      H1220   1.087       .  S
C1221      C1222   1.348       .  D
C1221      H1223   1.086       .  S
C1222      H1224   1.087       .  S
C1225      C1226   1.344       .  D
C1225      H1227   1.087       .  S
C1226      H1228   1.086       .  S
C1229      C1230   1.341       .  D
C1229      H1231   1.087       .  S
C1230      H1232   1.086       .  S
C1233      C1234   1.346       .  D
C1233      H1235   1.087       .  S
C1234      H1236   1.086       .  S
C1237      C1238   1.340       .  D
C1237      H1239   1.086       .  S
C1238      H1240   1.087       .  S
C1241      C1242   1.351       .  D
C1241      H1243   1.086       .  S
C1242      H1244   1.086       .  S
C1245      C1246   1.344       .  D
C1245      H1247   1.086       .  S
C1246      H1248   1.087       .  S
C1249      C1250   1.413       .  A
C1249      C1254   1.401       .  A
C1249      H1255   1.080       .  S
C1250      C1251   1.414       .  A
C1251      C1252   1.402       .  A
C1251      H1256   1.080       .  S
C1252      C1253   1.399       .  A
C1252      H1257   1.081       .  S
C1253      C1254   1.401       .  A
C1254      H1258   1.080       .  S
C1259      C1264   1.401       .  A
C1259      H1265   1.083       .  S
C1260      C1261   1.400   1_455  A
C1261      C1262   1.396       .  A
C1261      H1266   1.082       .  S
C1262      H1267   1.083       .  S
C1263      C1264   1.405       .  A
C1264      H1268   1.083       .  S
C1269      C1270   1.404       .  A
C1269      C1274   1.397       .  A
C1269      H1275   1.083       .  S
C1270      C1271   1.401       .  A
C1271      C1272   1.402       .  A
C1271      H1276   1.083       .  S
C1272      C1273   1.410       .  A
C1272      H1277   1.082       .  S
C1273      C1274   1.407       .  A
C1273      C1383   1.494       .  S
C1274      H1714   1.083       .  S
H1278      C1710   1.083       .  S
C1279      C1280   1.400       .  A
C1279      C1284   1.403       .  A
C1279      H1285   1.083       .  S
C1280      C1281   1.399       .  A
C1281      C1282   1.397       .  A
C1281      H1286   1.082       .  S
C1282      C1283   1.410       .  A
C1282      H1287   1.081       .  S
C1283      C1284   1.413       .  A
C1284      H1288   1.081       .  S
C1289      C1290   1.403       .  A
C1289      C1294   1.400       .  A
C1289      H1295   1.077       .  S
C1291      C1292   1.399       .  A
C1291      H1296   1.083       .  S
C1292      H1297   1.083       .  S
C1293      C1294   1.406       .  A
C1294      H1298   1.082       .  S
C1299      C1736   1.409       .  A
C1299      C1304   1.398       .  A
C1299      H1305   1.082       .  S
C1300      C1735   1.408   1_545  A
C1300      C1301   1.406       .  A
C1301      C1302   1.400       .  A
C1301      H1306   1.083       .  S
C1302      C1303   1.402       .  A
C1302      H1307   1.077       .  S
C1303      C1318   1.486       .  S
C1303      C1740   1.402   1_545  A
C1304      C1739   1.403       .  A
C1304      H1308   1.083       .  S
C1309      H1310   1.111   1_455  S
C1309      C1314   1.540   1_455  S
C1311      H1312   1.111       .  S
C1311      C1318   1.540       .  S
C1313      C1316   1.374       .  D
C1313      C1689   1.486       .  S
C1314      C1317   1.380       .  D
C1314      C1696   1.490   1_655  S
C1315      C1318   1.375       .  D
C1315      C1706   1.486       .  S
C1316      C1716   1.485       .  S
O1319      C1335   1.277       .  A
O1319     Zn1325   2.037       .  S
C1320      C1665   1.469       .  S
C1320      O1336   1.277       .  A
C1320      O1333   1.272       .  A
O1321      C1334   1.278       .  A
O1321     Cd1328   2.095       .  S
O1322      C1340   1.274       .  A
O1322     Cd1331   2.062   1_556  S
O1323      C1337   1.273       .  A
O1323     Cd1327   2.068       .  S
O1324      C1335   1.270       .  A
O1324     Cd1327   2.051       .  S
Zn1325     O1336   2.043       .  S
Zn1325     O1338   2.013   1_554  S
Zn1325     O1330   1.954   1_554  S
O1326      C1337   1.271       .  A
O1326     Cd1331   2.063       .  S
Cd1327     O1329   2.053   1_554  S
Cd1327     O1330   1.986   1_554  S
Cd1328     O1332   2.110       .  S
Cd1328     O1341   2.101       .  S
Cd1328     O1330   2.024       .  S
O1329      C1339   1.275       .  A
O1330     Cd1331   1.993   1_556  S
Cd1331     O1333   2.045       .  S
O1332      C1339   1.279       .  A
C1334      C1661   1.476       .  S
C1334      O1338   1.274       .  A
C1335      C1681   1.475       .  S
C1337      C1678   1.471       .  S
C1339      C1673   1.488       .  S
C1340      C1669   1.477       .  S
C1340      O1341   1.279       .  A
C1342      C1343   1.415       .  A
C1342      C1347   1.418       .  A
C1342      C1686   1.507       .  S
C1343      C1344   1.402       .  A
C1343      H1348   1.082       .  S
C1344      C1670   1.479       .  S
C1344      C1345   1.397       .  A
C1345      C1346   1.405       .  A
C1345      H1349   1.084       .  S
C1346      C1657   1.492       .  S
C1346      C1347   1.408       .  A
C1347      H1350   1.081       .  S
O1351      C1367   1.271       .  A
O1351     Zn1357   2.004       .  S
C1352      C1654   1.469       .  S
C1352      O1368   1.269       .  A
C1352      O1365   1.276       .  A
O1353      C1366   1.278       .  A
O1353     Cd1360   2.107       .  S
O1354      C1372   1.275       .  A
O1354     Cd1363   2.062   1_556  S
O1355      C1369   1.270       .  A
O1355     Cd1359   2.055       .  S
O1356      C1367   1.272       .  A
O1356     Cd1359   2.054       .  S
Zn1357     O1368   1.984       .  S
Zn1357     O1370   1.997   1_554  S
Zn1357     O1362   1.934       .  S
O1358      C1369   1.279       .  A
O1358     Cd1363   2.098       .  S
Cd1359     O1361   2.044   1_554  S
Cd1359     O1362   1.987       .  S
Cd1360     O1364   2.090       .  S
Cd1360     O1373   2.108       .  S
Cd1360     O1362   2.030   1_556  S
O1361      C1371   1.273       .  A
O1362     Cd1363   1.999       .  S
Cd1363     O1365   2.085       .  S
O1364      C1371   1.276       .  A
C1366      C1645   1.475       .  S
C1366      O1370   1.271       .  A
C1367      C1650   1.465       .  S
C1369      C1642   1.481       .  S
C1371      C1637   1.467       .  S
C1372      C1658   1.478       .  S
C1372      O1373   1.280       .  A
C1374      C1375   1.416       .  A
C1374      C1379   1.414       .  A
C1374      C1631   1.497       .  S
C1375      C1376   1.408       .  A
C1375      H1380   1.083       .  S
C1376      C1641   1.484       .  S
C1376      C1377   1.393       .  A
C1377      C1378   1.403       .  A
C1377      H1381   1.083       .  S
C1378      C1666   1.489       .  S
C1378      C1379   1.402       .  A
C1379      H1382   1.083       .  S
C1383      C1384   1.412       .  A
C1384      C1385   1.402       .  A
C1384      H1389   1.083       .  S
C1385      C1662   1.487       .  S
C1386      C1387   1.404   1_545  A
C1386      H1390   1.083       .  S
C1387      C1646   1.491       .  S
C1387      C1388   1.405       .  A
C1388      H1391   1.083       .  S
C1392      C1397   1.412       .  A
C1392      C1618   1.495       .  S
C1393      C1394   1.404       .  A
C1393      H1398   1.082       .  S
C1394      C1677   1.487       .  S
C1395      C1396   1.398       .  A
C1395      H1399   1.081       .  S
C1396      C1649   1.482       .  S
C1396      C1397   1.401       .  A
C1397      H1400   1.082       .  S
C1401      C1402   1.410       .  A
C1401      C1699   1.494       .  S
C1402      C1403   1.396       .  A
C1402      H1407   1.084       .  S
C1403      C1638   1.472       .  S
C1403      C1404   1.396       .  A
C1404      H1408   1.085       .  S
C1405      C1674   1.482       .  S
C1405      C1406   1.411       .  A
C1406      H1409   1.083       .  S
C1410      C1415   1.406       .  A
C1410      C1608   1.480   1_565  S
C1411      C1412   1.406       .  A
C1411      H1416   1.082       .  S
C1412      C1682   1.485       .  S
C1413      C1414   1.406       .  A
C1413      H1417   1.083       .  S
C1414      C1653   1.482       .  S
C1414      C1415   1.398       .  A
C1415      H1418   1.084       .  S
O1419      C1435   1.268       .  A
O1419     Zn1425   1.995       .  S
C1420      C1600   1.465       .  S
C1420      O1436   1.267       .  A
C1420      O1433   1.273       .  A
O1421      C1434   1.279       .  A
O1421     Cd1428   2.112       .  S
O1422      C1440   1.275       .  A
O1422     Cd1431   2.070       .  S
O1423      C1437   1.277       .  A
O1423     Cd1427   2.079       .  S
O1424      C1435   1.278       .  A
O1424     Cd1427   2.101       .  S
Zn1425     O1436   1.981       .  S
Zn1425     O1438   1.959       .  S
Zn1425     O1430   1.924       .  S
O1426      C1437   1.276       .  A
O1426     Cd1431   2.071       .  S
Cd1427     O1429   2.068       .  S
Cd1427     O1430   1.999       .  S
Cd1428     O1432   2.107       .  S
Cd1428     O1441   2.100       .  S
Cd1428     O1430   2.031       .  S
O1429      C1439   1.276       .  A
O1430     Cd1431   2.001       .  S
Cd1431     O1433   2.070       .  S
O1432      C1439   1.280       .  A
C1434      C1583   1.468       .  S
C1434      O1438   1.267       .  A
C1435      C1587   1.481       .  S
C1437      C1595   1.476       .  S
C1439      C1591   1.479       .  S
C1440      C1603   1.478       .  S
C1440      O1441   1.278       .  A
C1442      C1443   1.417       .  A
C1442      C1447   1.415       .  A
C1442      C1719   1.503       .  S
C1443      C1444   1.405       .  A
C1443      H1448   1.082       .  S
C1444      C1604   1.482       .  S
C1444      C1445   1.398       .  A
C1445      C1446   1.403       .  A
C1445      H1449   1.084       .  S
C1446      C1580   1.486       .  S
C1446      C1447   1.404       .  A
C1447      H1450   1.082       .  S
O1451      C1467   1.279       .  A
O1451     Zn1457   2.059       .  S
C1452      C1563   1.469       .  S
C1452      O1468   1.277       .  A
C1452      O1465   1.270       .  A
O1453      C1466   1.277       .  A
O1453     Cd1460   2.087       .  S
O1454      C1472   1.271       .  A
O1454     Cd1463   2.050       .  S
O1455      C1469   1.271       .  A
O1455     Cd1459   2.051       .  S
O1456      C1467   1.270       .  A
O1456     Cd1459   2.049       .  S
Zn1457     O1468   2.041       .  S
Zn1457     O1470   2.033       .  S
Zn1457     O1462   1.949       .  S
O1458      C1469   1.272       .  A
O1458     Cd1463   2.058       .  S
Cd1459     O1461   2.047       .  S
Cd1459     O1462   1.990       .  S
Cd1460     O1464   2.086       .  S
Cd1460     O1473   2.099       .  S
Cd1460     O1462   2.020       .  S
O1461      C1471   1.274       .  A
O1462     Cd1463   1.986       .  S
Cd1463     O1465   2.039       .  S
O1464      C1471   1.276       .  A
C1466      C1560   1.486       .  S
C1466      O1470   1.279       .  A
C1467      C1575   1.480       .  S
C1469      C1571   1.466       .  S
C1471      C1568   1.471       .  S
C1472      C1579   1.474       .  S
C1472      O1473   1.277       .  A
C1474      C1479   1.415       .  A
C1474      C1736   1.494       .  S
C1475      C1476   1.394       .  A
C1475      H1480   1.084       .  S
C1476      C1567   1.468       .  S
C1477      C1478   1.407       .  A
C1477      H1481   1.084       .  S
C1478      C1592   1.493       .  S
C1478      C1479   1.410       .  A
C1479      H1482   1.083       .  S
C1483      C1484   1.417       .  A
C1483      C1729   1.494       .  S
C1484      C1485   1.405       .  A
C1484      H1489   1.083       .  S
C1485      C1559   1.478       .  S
C1485      C1486   1.394       .  A
C1486      H1490   1.085       .  S
C1487      C1584   1.485       .  S
C1487      C1488   1.399       .  A
C1488      H1491   1.083       .  S
C1492      C1497   1.405   1_455  A
C1492      C1550   1.489       .  S
C1493      C1494   1.411       .  A
C1493      H1498   1.083       .  S
C1494      C1576   1.491       .  S
C1495      C1496   1.401       .  A
C1495      H1499   1.081       .  S
C1496      C1599   1.477       .  S
C1496      C1497   1.393       .  A
C1497      H1500   1.084       .  S
C1501      C1502   1.407       .  A
C1501      C1506   1.409       .  A
C1501      C1543   1.484       .  S
C1502      C1503   1.396       .  A
C1502      H1507   1.084       .  S
C1503      C1564   1.481       .  S
C1503      C1504   1.404       .  A
C1504      C1505   1.405       .  A
C1504      H1508   1.082       .  S
C1505      C1596   1.488       .  S
C1505      C1506   1.404       .  A
C1506      H1509   1.084       .  S
C1510      C1511   1.415       .  A
C1510      C1530   1.496       .  S
C1511      C1512   1.410       .  A
C1511      H1516   1.083       .  S
C1512      C1588   1.485       .  S
C1512      C1513   1.394       .  A
C1513      H1517   1.081       .  S
C1514      C1572   1.484       .  S
C1514      C1515   1.400       .  A
C1515      H1518   1.084       .  S
C1519      H1520   1.110       .  S
C1519      C1525   1.538   1_545  S
C1519      C1524   1.536       .  S
C1521      H1522   1.111       .  S
C1521      C1527   1.541       .  S
C1521      C1528   1.539   1_545  S
C1523      C1526   1.379       .  D
C1523      C1628   1.490       .  S
C1524      C1527   1.376       .  D
C1524      C1611   1.493       .  S
C1525      C1528   1.374       .  D
C1525      C1621   1.484       .  S
C1526      C1540   1.487       .  S
C1527      C1533   1.483   1_545  S
C1528      C1553   1.487       .  S
C1529      C1534   1.397       .  A
C1529      H1535   1.082       .  S
C1530      C1531   1.407       .  A
C1531      C1532   1.402       .  A
C1531      H1536   1.083       .  S
C1532      H1537   1.079       .  S
C1533      C1534   1.401       .  A
C1534      H1538   1.083       .  S
C1539      C1540   1.401       .  A
C1539      C1544   1.393       .  A
C1539      H1545   1.078       .  S
C1540      C1541   1.406       .  A
C1541      C1542   1.399       .  A
C1541      H1546   1.082       .  S
C1542      C1543   1.406       .  A
C1542      H1547   1.083       .  S
C1543      C1544   1.404       .  A
C1544      H1548   1.083       .  S
C1549      C1550   1.408   1_655  A
C1549      C1554   1.396       .  A
C1549      H1555   1.083       .  S
C1551      C1552   1.402       .  A
C1551      H1556   1.083       .  S
C1552      H1557   1.083       .  S
C1553      C1554   1.401       .  A
C1554      H1558   1.083       .  S
C1559      C1560   1.343       .  D
C1559      H1561   1.087       .  S
C1560      H1562   1.087       .  S
C1563      C1564   1.341       .  D
C1563      H1565   1.087       .  S
C1564      H1566   1.087       .  S
C1567      C1568   1.341       .  D
C1567      H1569   1.087       .  S
C1568      H1570   1.087       .  S
C1571      C1572   1.345       .  D
C1571      H1573   1.084       .  S
C1572      H1574   1.087       .  S
C1575      C1576   1.355       .  D
C1575      H1577   1.085       .  S
C1576      H1578   1.086       .  S
C1579      C1580   1.345       .  D
C1579      H1581   1.088       .  S
C1580      H1582   1.086       .  S
C1583      C1584   1.341       .  D
C1583      H1585   1.088       .  S
C1584      H1586   1.086       .  S
C1587      C1588   1.340       .  D
C1587      H1589   1.087       .  S
C1588      H1590   1.087       .  S
C1591      C1592   1.349       .  D
C1591      H1593   1.087       .  S
C1592      H1594   1.086       .  S
C1595      C1596   1.348       .  D
C1595      H1597   1.085       .  S
C1596      H1598   1.087       .  S
C1599      C1600   1.340       .  D
C1599      H1601   1.087       .  S
C1600      H1602   1.087       .  S
C1603      C1604   1.347       .  D
C1603      H1605   1.087       .  S
C1604      H1606   1.086       .  S
C1607      C1608   1.403       .  A
C1607      C1612   1.398       .  A
C1607      H1613   1.083       .  S
C1609      C1610   1.395       .  A
C1609      H1614   1.083       .  S
C1610      H1615   1.076       .  S
C1611      C1612   1.408       .  A
C1612      H1616   1.081       .  S
C1617      C1622   1.397       .  A
C1617      H1623   1.082       .  S
C1618      C1619   1.412       .  A
C1619      C1620   1.401       .  A
C1619      H1624   1.082       .  S
C1620      H1625   1.083       .  S
C1621      C1622   1.400       .  A
C1622      H1626   1.078       .  S
C1627      C1628   1.405       .  A
C1627      C1632   1.401       .  A
C1627      H1633   1.083       .  S
C1628      C1629   1.402       .  A
C1629      C1630   1.400       .  A
C1629      H1634   1.083       .  S
C1630      C1631   1.410       .  A
C1630      H1635   1.082       .  S
C1631      C1632   1.409       .  A
C1632      H1636   1.082       .  S
C1637      C1638   1.342       .  D
C1637      H1639   1.086       .  S
C1638      H1640   1.087       .  S
C1641      C1642   1.340       .  D
C1641      H1643   1.088       .  S
C1642      H1644   1.087       .  S
C1645      C1646   1.346       .  D
C1645      H1647   1.087       .  S
C1646      H1648   1.086       .  S
C1649      C1650   1.347       .  D
C1649      H1651   1.087       .  S
C1650      H1652   1.086       .  S
C1653      C1654   1.341       .  D
C1653      H1655   1.087       .  S
C1654      H1656   1.086       .  S
C1657      C1658   1.348       .  D
C1657      H1659   1.086       .  S
C1658      H1660   1.087       .  S
C1661      C1662   1.346       .  D
C1661      H1663   1.087       .  S
C1662      H1664   1.086       .  S
C1665      C1666   1.345       .  D
C1665      H1667   1.086       .  S
C1666      H1668   1.087       .  S
C1669      C1670   1.346       .  D
C1669      H1671   1.086       .  S
C1670      H1672   1.087       .  S
C1673      C1674   1.347       .  D
C1673      H1675   1.086       .  S
C1674      H1676   1.088       .  S
C1677      C1678   1.350       .  D
C1677      H1679   1.086       .  S
C1678      H1680   1.086       .  S
C1681      C1682   1.342       .  D
C1681      H1683   1.085       .  S
C1682      H1684   1.087       .  S
C1685      C1686   1.412       .  A
C1685      C1690   1.400       .  A
C1685      H1691   1.081       .  S
C1686      C1687   1.413       .  A
C1687      C1688   1.403       .  A
C1687      H1692   1.081       .  S
C1688      C1689   1.401       .  A
C1688      H1693   1.082       .  S
C1689      C1690   1.400       .  A
C1690      H1694   1.081       .  S
C1695      C1700   1.395       .  A
C1695      H1701   1.083       .  S
C1696      C1697   1.404   1_455  A
C1697      C1698   1.405       .  A
C1697      H1702   1.080       .  S
C1698      H1703   1.082       .  S
C1699      C1700   1.408       .  A
C1700      H1704   1.083       .  S
C1705      C1706   1.404       .  A
C1705      C1710   1.397       .  A
C1705      H1711   1.083       .  S
C1706      C1707   1.402   1_545  A
C1707      C1708   1.402       .  A
C1707      H1712   1.083       .  S
C1708      C1709   1.409   1_565  A
C1708      H1713   1.083       .  S
C1709      C1710   1.407       .  A
C1715      C1716   1.400       .  A
C1715      C1720   1.403       .  A
C1715      H1721   1.083       .  S
C1716      C1717   1.401       .  A
C1717      C1718   1.399       .  A
C1717      H1722   1.082       .  S
C1718      C1719   1.410       .  A
C1718      H1723   1.081       .  S
C1719      C1720   1.413       .  A
C1720      H1724   1.081       .  S
C1725      C1726   1.403       .  A
C1725      C1730   1.400       .  A
C1725      H1731   1.078       .  S
C1727      C1728   1.398       .  A
C1727      H1732   1.083       .  S
C1728      H1733   1.082       .  S
C1729      C1730   1.408       .  A
C1730      H1734   1.082       .  S
C1735      C1740   1.397       .  A
C1735      H1741   1.083       .  S
C1736      C1737   1.407       .  A
C1737      C1738   1.402       .  A
C1737      H1742   1.083       .  S
C1738      C1739   1.402       .  A
C1738      H1743   1.078       .  S
C1740      H1744   1.083       .  S
