geometry optimzed in LAMMPS
_audit_creation_date              2020-11-30 
_audit_creation_method            'lammps2cif' 
_symmetry_space_group_name_H-M    'P1' 
_symmetry_Int_Tables_number       1 
_symmetry_cell_setting            triclinic 
loop_ 
_symmetry_equiv_pos_as_xyz 
  x,y,z 
_cell_length_a                    43.6858186 
_cell_length_b                    50.43260412298099 
_cell_length_c                    42.31669014635423 
_cell_angle_alpha                 89.96451287292578 
_cell_angle_beta                  89.87421136564859 
_cell_angle_gamma                 90.25542228505982 
loop_ 
_atom_site_label 
_atom_site_type_symbol 
_atom_site_fract_x 
_atom_site_fract_y 
_atom_site_fract_z 
_atom_site_charge 
In1        In  0.79627768  0.12374957  0.38865760     1.36900
C2          C  0.85618288  0.13176604  0.39229885     0.77600
O3          O  0.79014750  0.16667135  0.40077116    -0.60900
O4          O  0.75397936  0.13996354  0.41165702    -0.51800
C5          C  0.77296488  0.12234852  0.33040991     0.70200
O6          O  0.79511161  0.13706186  0.33800795    -0.46600
C7          C  0.79592794  0.07957889  0.42340215     0.74900
O8          O  0.84403469  0.11900244  0.36996800    -0.58500
O9          O  0.78851883  0.10187103  0.43425616    -0.48600
O10         O  0.83760428  0.14074802  0.41235303    -0.54900
C11         C  0.76405604  0.16342236  0.41298130     0.85100
O12         O  0.76292896  0.10805491  0.35263046    -0.56800
O13         O  0.80225344  0.07964223  0.39433161    -0.60100
In14       In  0.14424705  0.14466743  0.43103236     1.36900
C15         C  0.08421231  0.14656558  0.41941339     0.77600
O16         O  0.14579726  0.15704465  0.38015888    -0.60900
O17         O  0.18230381  0.13373314  0.39765793    -0.51800
C18         C  0.16927819  0.18436670  0.46395020     0.70200
O19         O  0.14262906  0.17576745  0.46934284    -0.46600
C20         C  0.15227849  0.10002618  0.46362478     0.74900
O21         O  0.10109733  0.16689473  0.41880004    -0.58500
O22         O  0.15200438  0.10081143  0.43384964    -0.48600
O23         O  0.09805231  0.12560706  0.42659413    -0.54900
C24         C  0.17082320  0.14570777  0.37438088     0.85100
O25         O  0.18287264  0.17255553  0.44186331    -0.56800
O26         O  0.14920126  0.12227129  0.47682414    -0.60100
In27       In  0.29641707  0.38276663  0.59650776     1.36900
C28         C  0.35528788  0.37129287  0.58900565     0.77600
O29         O  0.29036407  0.33898880  0.59021421    -0.60900
O30         O  0.26240658  0.36470963  0.56308035    -0.51800
C31         C  0.26773129  0.38315263  0.65198119     0.70200
O32         O  0.29644886  0.38436542  0.64940397    -0.46600
C33         C  0.29387230  0.43262655  0.57541498     0.74900
O34         O  0.34208747  0.37052794  0.61549204    -0.58500
O35         O  0.28629858  0.41287463  0.55896113    -0.48600
O36         O  0.33832992  0.37791768  0.56633675    -0.54900
C37         C  0.26954483  0.34117210  0.56982809     0.85100
O38         O  0.25366230  0.38233866  0.62602497    -0.56800
O39         O  0.30223141  0.42689281  0.60302913    -0.60100
In40       In  0.64354004  0.35354610  0.56520367     1.36900
C41         C  0.58303982  0.35013688  0.57279552     0.77600
O42         O  0.65116410  0.33531807  0.61314877    -0.60900
O43         O  0.66661513  0.37464848  0.60515491    -0.51800
C44         C  0.66761036  0.31450301  0.53116997     0.70200
O45         O  0.64967365  0.33136979  0.51960664    -0.46600
C46         C  0.66027992  0.39690373  0.53402892     0.74900
O47         O  0.59872709  0.33152115  0.56151186    -0.58500
O48         O  0.67889804  0.38350046  0.55013207    -0.48600
O49         O  0.59841224  0.37024181  0.58062569    -0.54900
C50         C  0.66439593  0.35554995  0.62417690     0.85100
O51         O  0.67349585  0.31785452  0.55999045    -0.56800
O52         O  0.63350525  0.38754592  0.53283369    -0.60100
In53       In  0.78362073  0.36663298  0.89790283     1.36900
C54         C  0.84461589  0.36573790  0.89764409     0.77600
O55         O  0.78458343  0.35885855  0.84583751    -0.60900
O56         O  0.74379769  0.37436071  0.86567795    -0.51800
C57         C  0.75632955  0.32380128  0.92224342     0.70200
O58         O  0.77560895  0.32257967  0.90010082    -0.46600
C59         C  0.77615304  0.41099579  0.93121152     0.74900
O60         O  0.82871001  0.34954643  0.91341712    -0.58500
O61         O  0.77410627  0.41029289  0.90149888    -0.48600
O62         O  0.82933666  0.38209939  0.88179506    -0.54900
C63         C  0.75751153  0.36638129  0.84124135     0.85100
O64         O  0.75128182  0.34699234  0.93196985    -0.56800
O65         O  0.78100687  0.38876479  0.94381058    -0.60100
In66       In  0.13503179  0.36769215  0.92000354     1.36900
C67         C  0.07472550  0.36628668  0.91298063     0.77600
O68         O  0.14843616  0.32487204  0.91819452    -0.60900
O69         O  0.14414554  0.34319620  0.96303638    -0.51800
C70         C  0.16231408  0.37311567  0.86378486     0.70200
O71         O  0.13390315  0.37022315  0.86700199    -0.46600
C72         C  0.14904763  0.40888242  0.95664836     0.74900
O73         O  0.09074956  0.38634852  0.90600712    -0.58500
O74         O  0.16906102  0.39331938  0.94613401    -0.48600
O75         O  0.08971695  0.34686378  0.92354987    -0.54900
C76         C  0.15084435  0.32259050  0.94773377     0.85100
O77         O  0.17676285  0.37363319  0.88943122    -0.56800
O78         O  0.12212380  0.40339203  0.94842141    -0.60100
In79       In  0.28030525  0.13590161  0.09625663     1.36900
C80         C  0.34075023  0.13979187  0.09014017     0.77600
O81         O  0.28050563  0.15698197  0.14313023    -0.60900
O82         O  0.25069995  0.12403694  0.13709224    -0.51800
C83         C  0.24834320  0.17326951  0.06678623     0.70200
O84         O  0.27653946  0.17536678  0.07236887    -0.46600
C85         C  0.27446845  0.08699513  0.07318729     0.74900
O86         O  0.32282852  0.14060343  0.06690875    -0.58500
O87         O  0.28143994  0.09161643  0.10151796    -0.48600
O88         O  0.32771804  0.13735945  0.11657445    -0.54900
C89         C  0.26082798  0.14173295  0.15539003     0.85100
O90         O  0.23634828  0.15206905  0.07668571    -0.56800
O91         O  0.26951937  0.10747183  0.05696866    -0.60100
In92       In  0.63091312  0.13053410  0.06748586     1.36900
C93         C  0.57043058  0.13644061  0.07363210     0.77600
O94         O  0.64153194  0.17351841  0.05981319    -0.60900
O95         O  0.65555648  0.14610526  0.02464436    -0.51800
C96         C  0.66064714  0.12854527  0.12259698     0.70200
O97         O  0.63369973  0.12003438  0.11925580    -0.46600
C98         C  0.64151612  0.08552800  0.03747230     0.74900
O99         O  0.58851057  0.15581882  0.07134399    -0.58500
O100        O  0.62686509  0.10427654  0.02490648    -0.48600
O101        O  0.58326919  0.11421514  0.07302917    -0.54900
C102        C  0.65506158  0.16988862  0.03382249     0.85100
O103        O  0.67176618  0.13862174  0.09792135    -0.56800
O104        O  0.65142069  0.09011938  0.06487756    -0.60100
In105      In  0.81538374  0.87182689  0.59374518     1.36900
C106        C  0.87573980  0.87111516  0.60096416     0.77600
O107        O  0.80609978  0.82816301  0.59097482    -0.60900
O108        O  0.78901844  0.85250774  0.55446386    -0.51800
C109        C  0.78425027  0.87025379  0.64788270     0.70200
O110        O  0.81196327  0.86370695  0.64572551    -0.46600
C111        C  0.81003332  0.91555198  0.55907494     0.74900
O112        O  0.85917574  0.88905599  0.61251762    -0.58500
O113        O  0.80085152  0.91419565  0.58734717    -0.48600
O114        O  0.86145515  0.85340074  0.58600338    -0.54900
C115        C  0.79126379  0.82943658  0.56557924     0.85100
O116        O  0.77261836  0.87855775  0.62249665    -0.56800
O117        O  0.82158475  0.89444614  0.54858399    -0.60100
In118      In  0.16580110  0.87988758  0.60957652     1.36900
C119        C  0.10546569  0.87386795  0.61558636     0.77600
O120        O  0.16728177  0.85972474  0.65688724    -0.60900
O121        O  0.19804373  0.89156717  0.64824160    -0.51800
C122        C  0.19811350  0.84576633  0.57472992     0.70200
O123        O  0.16986738  0.84948360  0.57104397    -0.46600
C124        C  0.16898838  0.92622231  0.57971192     0.74900
O125        O  0.12304441  0.85501245  0.60855612    -0.58500
O126        O  0.17304942  0.92394236  0.60904007    -0.48600
O127        O  0.11896473  0.89547123  0.62115726    -0.54900
C128        C  0.18867082  0.87411198  0.66730493     0.85100
O129        O  0.21001643  0.86001144  0.59586182    -0.56800
O130        O  0.16450116  0.90462930  0.56549102    -0.60100
In131      In  0.32559931  0.65389553  0.43428911     1.36900
C132        C  0.38628739  0.65961834  0.43654200     0.77600
O133        O  0.31927568  0.69828661  0.43270433    -0.60900
O134        O  0.30644377  0.67756403  0.47428934    -0.51800
C135        C  0.29646121  0.64855649  0.37897970     0.70200
O136        O  0.32418213  0.64257357  0.38264950    -0.46600
C137        C  0.31286367  0.60788435  0.46330701     0.74900
O138        O  0.37159771  0.65815756  0.41095506    -0.58500
O139        O  0.29467384  0.62713532  0.46302249    -0.48600
O140        O  0.36966963  0.65923052  0.46094339    -0.54900
C141        C  0.30786848  0.69949958  0.46008800     0.85100
O142        O  0.28373176  0.65719934  0.40356559    -0.56800
O143        O  0.33722769  0.61203199  0.44820092    -0.60100
In144      In  0.67491570  0.63035174  0.42390554     1.36900
C145        C  0.61528825  0.64070925  0.42794626     0.77600
O146        O  0.67844163  0.63749522  0.37173587    -0.60900
O147        O  0.71752950  0.62256957  0.39504122    -0.51800
C148        C  0.69934742  0.67116201  0.45503159     0.70200
O149        O  0.68797344  0.67333818  0.42783725    -0.46600
C150        C  0.67694041  0.57988436  0.44276878     0.74900
O151        O  0.63211038  0.63879352  0.45200756    -0.58500
O152        O  0.65906823  0.58791777  0.42154824    -0.48600
O153        O  0.62905291  0.63756578  0.40205199    -0.54900
C154        C  0.70577821  0.62997777  0.36936014     0.85100
O155        O  0.69811356  0.64808789  0.46637318    -0.56800
O156        O  0.69425149  0.59757304  0.45391544    -0.60100
In157      In  0.30091293  0.86062256  0.94457979     1.36900
C158        C  0.36138591  0.85529926  0.94156770     0.77600
O159        O  0.29912814  0.84585806  0.89430313    -0.60900
O160        O  0.26810737  0.87581633  0.90805507    -0.51800
C161        C  0.27778718  0.82010448  0.97739652     0.70200
O162        O  0.29045854  0.83972645  0.99049546    -0.46600
C163        C  0.28916250  0.90712396  0.97204512     0.74900
O164        O  0.34481777  0.84061185  0.95865274    -0.58500
O165        O  0.26891781  0.88946785  0.96853205    -0.48600
O166        O  0.34703068  0.87246738  0.92593043    -0.54900
C167        C  0.27779927  0.86112205  0.88621088     0.85100
O168        O  0.27649935  0.82155379  0.94771875    -0.56800
O169        O  0.31529871  0.90067601  0.96223084    -0.60100
In170      In  0.65076984  0.85711591  0.91600122     1.36900
C171        C  0.59066870  0.84943615  0.92219848     0.77600
O172        O  0.65643728  0.81392051  0.92753710    -0.60900
O173        O  0.68484610  0.84196134  0.95108582    -0.51800
C174        C  0.67730893  0.85800646  0.85909214     0.70200
O175        O  0.64981590  0.86443468  0.86360598    -0.46600
C176        C  0.65741219  0.90656119  0.93634524     0.74900
O177        O  0.60570248  0.84050546  0.89912828    -0.58500
O178        O  0.66098884  0.88672404  0.95402637    -0.48600
O179        O  0.60657661  0.86125418  0.94254833    -0.54900
C180        C  0.67737273  0.81799248  0.94747624     0.85100
O181        O  0.69107666  0.85083806  0.88378232    -0.56800
O182        O  0.65177842  0.90106025  0.90792956    -0.60100
In183      In  0.80658933  0.62448276  0.08629482     1.36900
C184        C  0.86795716  0.62424728  0.08769248     0.77600
O185        O  0.80747664  0.64065493  0.13590410    -0.60900
O186        O  0.77884271  0.60783999  0.12678998    -0.51800
C187        C  0.77820730  0.66558777  0.05997847     0.70200
O188        O  0.80548964  0.65951902  0.05351314    -0.46600
C189        C  0.79098108  0.58309693  0.05016886     0.74900
O190        O  0.85255224  0.64525402  0.08859819    -0.58500
O191        O  0.79729842  0.58113281  0.07910895    -0.48600
O192        O  0.85201964  0.60350684  0.08562348    -0.54900
C193        C  0.78856462  0.62416080  0.14693252     0.85100
O194        O  0.76524914  0.65031897  0.07954360    -0.56800
O195        O  0.79235226  0.60647597  0.03963675    -0.60100
In196      In  0.15905753  0.62013129  0.11472113     1.36900
C197        C  0.09835055  0.62165172  0.10863772     0.77600
O198        O  0.15935970  0.66317724  0.10133496    -0.60900
O199        O  0.19689490  0.63937856  0.08701641    -0.51800
C200        C  0.18603022  0.62571168  0.17094965     0.70200
O201        O  0.15929258  0.63382335  0.16547976    -0.46600
C202        C  0.16647234  0.57225719  0.08930955     0.74900
O203        O  0.11129565  0.61546581  0.13423297    -0.58500
O204        O  0.16999885  0.59345768  0.07397393    -0.48600
O205        O  0.11648619  0.62740545  0.08645128    -0.54900
C206        C  0.18473599  0.66197602  0.08719943     0.85100
O207        O  0.19847893  0.61424699  0.14785586    -0.56800
O208        O  0.16006264  0.57555312  0.11810071    -0.60100
C209        C  0.90182945  0.62381542  0.08956520     0.01300
C210        C  0.91640529  0.60641856  0.11087810     0.04200
C211        C  0.94856362  0.60580150  0.11272125    -0.11900
C212        C  0.96641317  0.62305381  0.09397185     0.23500
C213        C  0.95195408  0.64042494  0.07262397    -0.12500
C214        C  0.91975621  0.64068057  0.07023363     0.04900
C215        C  0.00034961  0.62314382  0.09723980     0.27300
C216        C  0.01422831  0.63688258  0.12247499    -0.13200
C217        C  0.04622000  0.63610309  0.12648900     0.05400
C218        C  0.06464538  0.62209112  0.10479418    -0.09100
C219        C  0.05074075  0.60861883  0.07925589     0.06200
C220        C  0.01866170  0.60888522  0.07576158    -0.13500
Br221      Br  0.97641885  0.66379090  0.04661304    -0.05600
Br222      Br  0.89244495  0.58450680  0.13915102     0.00100
Br223      Br  0.06477403  0.65517732  0.16109963     0.00500
Br224      Br  0.99954213  0.58918185  0.04200573    -0.03900
Br225      Br  0.90043183  0.66323026  0.03932477     0.00600
Br226      Br  0.96838193  0.58120893  0.14092551    -0.03200
Br227      Br  0.98921409  0.65691254  0.15145915    -0.04100
Br228      Br  0.07534810  0.58863055  0.04979431    -0.00100
C229        C  0.76269467  0.68869756  0.04565099     0.01300
C230        C  0.77688935  0.71392731  0.04598285     0.04200
C231        C  0.76260987  0.73568676  0.03131845    -0.11900
C232        C  0.73399824  0.73241303  0.01649622     0.23500
C233        C  0.71936200  0.70746228  0.01702231    -0.12500
C234        C  0.73375114  0.68560262  0.03131620     0.04900
C235        C  0.71990344  0.75483598  0.99904548     0.27300
C236        C  0.70167008  0.77354374  0.01505042    -0.13200
C237        C  0.68800010  0.79445169  0.99818246     0.05400
C238        C  0.69208434  0.79640214  0.96521517    -0.09100
C239        C  0.71045801  0.77784405  0.94924740     0.06200
C240        C  0.72454819  0.75722420  0.96617268    -0.13500
Br241      Br  0.67963054  0.70331706  0.99776766    -0.05600
Br242      Br  0.81533563  0.71907524  0.06760572     0.00100
Br243      Br  0.66292426  0.82004224  0.01999323     0.00500
Br244      Br  0.75058635  0.73234718  0.94447708    -0.03900
Br245      Br  0.71459440  0.65108042  0.02928668     0.00600
Br246      Br  0.78219527  0.77006595  0.03129477    -0.03200
Br247      Br  0.69528398  0.77030718  0.05999263    -0.04100
Br248      Br  0.71723126  0.78134122  0.90434495    -0.00100
C249        C  0.26574222  0.79701562  0.99512697     0.01300
C250        C  0.27327052  0.77107550  0.98533662     0.04200
C251        C  0.26047691  0.74902027  0.00096949    -0.11900
C252        C  0.24067408  0.75274463  0.02687705     0.18700
C253        C  0.23384203  0.77855844  0.03729397    -0.12500
C254        C  0.24618472  0.80065263  0.02135803     0.04900
C255        C  0.22632644  0.72951819  0.04260235     0.27300
C256        C  0.19685598  0.72109656  0.03343773    -0.13200
C257        C  0.18324783  0.69892727  0.04804298     0.05400
C258        C  0.19903981  0.68518206  0.07193907    -0.09100
C259        C  0.22851866  0.69360660  0.08114729     0.06200
C260        C  0.24212386  0.71579589  0.06651806    -0.13500
Br261      Br  0.20696615  0.78352844  0.07306928    -0.05600
Br262      Br  0.30227016  0.76554298  0.95146914     0.00100
Br263      Br  0.14364328  0.68652413  0.03412499     0.00500
Br264      Br  0.28227214  0.72764343  0.07932736    -0.03900
Br265      Br  0.23453894  0.83573898  0.03447671     0.00600
Br266      Br  0.26961976  0.71360184  0.98665218    -0.03200
Br267      Br  0.17529507  0.73993004  0.00067006    -0.04100
Br268      Br  0.24975343  0.67539848  0.11467583    -0.00100
C269        C  0.39497350  0.85295226  0.94017547     0.01300
C270        C  0.40865842  0.82887897  0.93095635     0.04200
C271        C  0.44072138  0.82716846  0.92839572    -0.11900
C272        C  0.45910944  0.84947379  0.93508828     0.23500
C273        C  0.44547671  0.87334220  0.94496388    -0.12500
C274        C  0.41346453  0.87508584  0.94751401     0.04900
C275        C  0.49279462  0.84802932  0.93129229     0.27300
C276        C  0.51117129  0.83969065  0.95667159    -0.13200
C277        C  0.54323286  0.83928026  0.95342308     0.05400
C278        C  0.55701713  0.84737579  0.92474984    -0.09100
C279        C  0.53847906  0.85542980  0.89920987     0.06200
C280        C  0.50643407  0.85565013  0.90249111    -0.13500
Br281      Br  0.47078484  0.90363941  0.95499766    -0.05600
Br282      Br  0.38350544  0.79865364  0.92026374     0.00100
Br283      Br  0.56806573  0.82694000  0.98808834     0.00500
Br284      Br  0.48103080  0.86714492  0.86787097    -0.03900
Br285      Br  0.39506362  0.90752573  0.96236915     0.00600
Br286      Br  0.45966033  0.79445583  0.91532869    -0.03200
Br287      Br  0.49218444  0.82933038  0.99603244    -0.04100
Br288      Br  0.55679315  0.86819670  0.86045251    -0.00100
C289        C  0.72231714  0.62983593  0.33877122     0.01300
C290        C  0.73824617  0.60701459  0.32869922     0.04200
C291        C  0.75123373  0.60613745  0.29820629    -0.11900
C292        C  0.74843732  0.62800668  0.27770861     0.23500
C293        C  0.73410155  0.65131361  0.28837102    -0.12500
C294        C  0.72098862  0.65223214  0.31876136     0.04900
C295        C  0.75913950  0.62610324  0.24440980     0.27300
C296        C  0.78977037  0.63183577  0.23656061    -0.13200
C297        C  0.79961518  0.63049069  0.20486673     0.05400
C298        C  0.77855026  0.62414470  0.18057495    -0.09100
C299        C  0.74779960  0.61816759  0.18869226     0.06200
C300        C  0.73833144  0.61884655  0.22052876    -0.13500
Br301      Br  0.73244271  0.68194238  0.26108648    -0.05600
Br302      Br  0.74073135  0.57620650  0.35562316     0.00100
Br303      Br  0.84248333  0.63593613  0.19546388     0.00500
Br304      Br  0.69662133  0.60996327  0.23171821    -0.03900
Br305      Br  0.70210190  0.68460144  0.33323696     0.00600
Br306      Br  0.77236910  0.57479509  0.28403746    -0.03200
Br307      Br  0.81813406  0.64163463  0.26949100    -0.04100
Br308      Br  0.71772825  0.61046024  0.15651002    -0.00100
C309        C  0.28017563  0.64574069  0.34843399     0.01300
C310        C  0.29366746  0.65524582  0.32019921     0.04200
C311        C  0.27817329  0.65246682  0.29120790    -0.11900
C312        C  0.24902429  0.64044527  0.29025966     0.23500
C313        C  0.23536050  0.63121082  0.31838961    -0.12500
C314        C  0.25089791  0.63371321  0.34737613     0.04900
C315        C  0.23299330  0.63687237  0.25957629     0.27300
C316        C  0.21548265  0.65761552  0.24671782    -0.13200
C317        C  0.20008747  0.65406002  0.21776918     0.05400
C318        C  0.20176187  0.62948326  0.20171869    -0.09100
C319        C  0.21935265  0.60872461  0.21480221     0.06200
C320        C  0.23510445  0.61254308  0.24344269    -0.13500
Br321      Br  0.19533591  0.61486988  0.31692179    -0.05600
Br322      Br  0.33267941  0.67336365  0.32117513     0.00100
Br323      Br  0.17836782  0.68360419  0.19950723     0.00500
Br324      Br  0.25985345  0.58445982  0.26076200    -0.03900
Br325      Br  0.23253753  0.61922845  0.38522438     0.00600
Br326      Br  0.29676571  0.66506795  0.25256580    -0.03200
Br327      Br  0.21298489  0.69101888  0.26883079    -0.04100
Br328      Br  0.22091547  0.57442276  0.19459482    -0.00100
C329        C  0.42025841  0.66061520  0.43771374     0.01300
C330        C  0.43639431  0.64503847  0.45998031     0.04200
C331        C  0.46859245  0.64417161  0.45916591    -0.11900
C332        C  0.48486171  0.65841073  0.43594921     0.23500
C333        C  0.46906150  0.67453497  0.41435912    -0.12500
C334        C  0.43687391  0.67585924  0.41537376     0.04900
C335        C  0.51843033  0.65481476  0.43300237     0.27300
C336        C  0.53877748  0.67152144  0.44947070    -0.13200
C337        C  0.57056063  0.66707671  0.44776131     0.05400
C338        C  0.58201390  0.64571331  0.42975503    -0.09100
C339        C  0.56150926  0.62908784  0.41317994     0.06200
C340        C  0.52983709  0.63375080  0.41468215    -0.13500
Br341      Br  0.49174010  0.69418561  0.38285801    -0.05600
Br342      Br  0.41493814  0.62296849  0.49016364     0.00100
Br343      Br  0.59831622  0.69104203  0.46890838     0.00500
Br344      Br  0.50174576  0.61103578  0.39205835    -0.03900
Br345      Br  0.41591420  0.69924620  0.38656604     0.00600
Br346      Br  0.49081050  0.62262013  0.48905027    -0.03200
Br347      Br  0.52281743  0.70034479  0.47442847    -0.04100
Br348      Br  0.57643887  0.59888446  0.38981945    -0.00100
C349        C  0.26536448  0.86206755  0.85373418     0.01300
C350        C  0.26179550  0.88675564  0.83842338     0.04200
C351        C  0.24912893  0.88791787  0.80794568    -0.11900
C352        C  0.24059755  0.86442796  0.79227940     0.23500
C353        C  0.24464872  0.83971293  0.80716364    -0.12500
C354        C  0.25679949  0.83849700  0.83793770     0.04900
C355        C  0.22728129  0.86585982  0.76012253     0.27300
C356        C  0.19528371  0.86577993  0.75620821    -0.13200
C357        C  0.18258750  0.86809152  0.72581363     0.05400
C358        C  0.20190371  0.87076344  0.69917936    -0.09100
C359        C  0.23401396  0.87052275  0.70316282     0.06200
C360        C  0.24662141  0.86805943  0.73358115    -0.13500
Br361      Br  0.23327360  0.80761993  0.78521511    -0.05600
Br362      Br  0.27583197  0.91904393  0.85821798     0.00100
Br363      Br  0.13868191  0.86893754  0.72119453     0.00500
Br364      Br  0.29046773  0.86778810  0.73912170    -0.03900
Br365      Br  0.26005351  0.80458453  0.85881677     0.00600
Br366      Br  0.24330114  0.92172903  0.78744347    -0.03200
Br367      Br  0.16891377  0.86312206  0.79275047    -0.04100
Br368      Br  0.26100014  0.87225951  0.66697480    -0.00100
C369        C  0.29612173  0.72426088  0.47442350     0.01300
C370        C  0.30268259  0.73009755  0.50635007     0.04200
C371        C  0.28798324  0.75134500  0.52155478    -0.11900
C372        C  0.26697333  0.76712596  0.50487693     0.23500
C373        C  0.26180796  0.76241498  0.47250954    -0.12500
C374        C  0.27622637  0.74096938  0.45727753     0.04900
C375        C  0.24910324  0.78769306  0.52188584     0.27300
C376        C  0.21977437  0.78145675  0.53369687    -0.13200
C377        C  0.20304837  0.80045970  0.55079977     0.05400
C378        C  0.21561154  0.82595544  0.55621971    -0.09100
C379        C  0.24506340  0.83215272  0.54426652     0.06200
C380        C  0.26166133  0.81306635  0.52707613    -0.13500
Br381      Br  0.23410912  0.78498633  0.44947780    -0.05600
Br382      Br  0.33247049  0.70946912  0.52923316     0.00100
Br383      Br  0.16375509  0.79057860  0.56843287     0.00500
Br384      Br  0.30174134  0.82146868  0.51052932    -0.03900
Br385      Br  0.26668236  0.73356566  0.41361628     0.00600
Br386      Br  0.29592108  0.75850992  0.56558463    -0.03200
Br387      Br  0.20283908  0.74648478  0.52692330    -0.04100
Br388      Br  0.26256389  0.86700380  0.55023934    -0.00100
C389        C  0.69227917  0.85917352  0.82757031     0.01300
C390        C  0.72284060  0.86832780  0.82471361     0.04200
C391        C  0.73705405  0.86943166  0.79484434    -0.11900
C392        C  0.72075100  0.86199654  0.76756408     0.23500
C393        C  0.69029451  0.85305723  0.77020570    -0.12500
C394        C  0.67609438  0.85146867  0.80007840     0.04900
C395        C  0.73571117  0.86375644  0.73605970     0.27300
C396        C  0.73584099  0.88794379  0.71936836    -0.13200
C397        C  0.75152552  0.89008356  0.69036434     0.05400
C398        C  0.76683574  0.86791199  0.67774977    -0.09100
C399        C  0.76583099  0.84344525  0.69399958     0.06200
C400        C  0.75035229  0.84141598  0.72312904    -0.13500
Br401      Br  0.66822614  0.84288479  0.73261522    -0.05600
Br402      Br  0.74502898  0.88107666  0.86118715     0.00100
Br403      Br  0.75359119  0.92383684  0.66896710     0.00500
Br404      Br  0.74900541  0.80805478  0.74548115    -0.03900
Br405      Br  0.63492158  0.83751883  0.80293851     0.00600
Br406      Br  0.77902027  0.88121543  0.79107090    -0.03200
Br407      Br  0.71456383  0.91813413  0.73651970    -0.04100
Br408      Br  0.78460053  0.81235881  0.67583716    -0.00100
C409        C  0.71316137  0.69381887  0.47205725     0.01300
C410        C  0.73441409  0.71051360  0.45647525     0.04200
C411        C  0.74698012  0.73250967  0.47230759    -0.11900
C412        C  0.73870493  0.73772370  0.50385191     0.23500
C413        C  0.71820329  0.72072471  0.51977084    -0.12500
C414        C  0.70523261  0.69891387  0.50386977     0.04900
C415        C  0.75180667  0.76105050  0.52032754     0.27300
C416        C  0.78045959  0.75911475  0.53521918    -0.13200
C417        C  0.79353695  0.78147061  0.54984673     0.05400
C418        C  0.77759719  0.80584886  0.55018955    -0.09100
C419        C  0.74843332  0.80749975  0.53583920     0.06200
C420        C  0.73578760  0.78519847  0.52067562    -0.13500
Br421      Br  0.70822663  0.72740972  0.56350676    -0.05600
Br422      Br  0.74791387  0.70246932  0.41408261     0.00100
Br423      Br  0.83405617  0.77856029  0.56772759     0.00500
Br424      Br  0.69639198  0.78756175  0.50029242    -0.03900
Br425      Br  0.67555620  0.67693232  0.52546317     0.00600
Br426      Br  0.77595824  0.75545585  0.45109200    -0.03200
Br427      Br  0.80176232  0.72564888  0.53529945    -0.04100
Br428      Br  0.72465267  0.83968694  0.53822370    -0.00100
C429        C  0.90923987  0.87091525  0.60455141     0.01300
C430        C  0.92360782  0.84944468  0.61972167     0.04200
C431        C  0.95565072  0.84913511  0.62288947    -0.11900
C432        C  0.97335825  0.87029830  0.61090308     0.23500
C433        C  0.95896893  0.89184876  0.59589875    -0.12500
C434        C  0.92693920  0.89212833  0.59263959     0.04900
C435        C  0.00719908  0.86969001  0.61325773     0.27300
C436        C  0.02200204  0.88111776  0.63946826    -0.13200
C437        C  0.05418958  0.88202221  0.64068063     0.05400
C438        C  0.07171614  0.87127451  0.61571941    -0.09100
C439        C  0.05672865  0.85938524  0.58972099     0.06200
C440        C  0.02456233  0.85864156  0.58854566    -0.13500
Br441      Br  0.98334728  0.92080130  0.57953538    -0.05600
Br442      Br  0.89926245  0.82095096  0.63721907     0.00100
Br443      Br  0.07397825  0.89754180  0.67696384     0.00500
Br444      Br  0.00401760  0.84329122  0.55254153    -0.03900
Br445      Br  0.90745535  0.92087648  0.57036219     0.00600
Br446      Br  0.97538694  0.81978875  0.64365055    -0.03200
Br447      Br  0.99794637  0.89588693  0.67342069    -0.04100
Br448      Br  0.07990162  0.84591147  0.55429798    -0.00100
C449        C  0.64602104  0.05985031  0.02184234     0.01300
C450        C  0.66313253  0.05822353  0.99367509     0.04200
C451        C  0.66731694  0.03350341  0.97894060    -0.11900
C452        C  0.65436944  0.01047728  0.99240830     0.23500
C453        C  0.63766923  0.01208670  0.02084005    -0.12500
C454        C  0.63321403  0.03679432  0.03536925     0.04900
C455        C  0.65670755  0.98469515  0.97595614     0.27300
C456        C  0.63302986  0.97659910  0.95556183    -0.13200
C457        C  0.63364874  0.95122133  0.94190763     0.05400
C458        C  0.65821883  0.93395719  0.94839456    -0.09100
C459        C  0.68234427  0.94239312  0.96814091     0.06200
C460        C  0.68143855  0.96767056  0.98212343    -0.13500
Br461      Br  0.62070914  0.98034216  0.03960666    -0.05600
Br462      Br  0.68135367  0.08975990  0.97576921     0.00100
Br463      Br  0.59941887  0.93953915  0.91651624     0.00500
Br464      Br  0.71340264  0.97874304  0.01065988    -0.03900
Br465      Br  0.60785093  0.03930045  0.07267230     0.00600
Br466      Br  0.69071149  0.03103628  0.94037102    -0.03200
Br467      Br  0.59902276  0.00000321  0.94759994    -0.04100
Br468      Br  0.71701393  0.91962134  0.97546007    -0.00100
C469        C  0.27314961  0.05989970  0.05974462     0.01300
C470        C  0.24976466  0.05285516  0.03822399     0.04200
C471        C  0.25000101  0.02781883  0.02353541    -0.11900
C472        C  0.27322725  0.00953173  0.03067499     0.23500
C473        C  0.29589470  0.01607742  0.05298470    -0.12500
C474        C  0.29608064  0.04122941  0.06731087     0.04900
C475        C  0.27451843  0.98355461  0.01431404     0.27300
C476        C  0.26376172  0.96052876  0.02961513    -0.13200
C477        C  0.26819469  0.93550545  0.01567612     0.05400
C478        C  0.28297049  0.93343048  0.98609645    -0.09100
C479        C  0.29278863  0.95666295  0.97032148     0.06200
C480        C  0.28862609  0.98164198  0.98445016    -0.13500
Br481      Br  0.32709240  0.99050700  0.06343153    -0.05600
Br482      Br  0.21645084  0.07682093  0.02973588     0.00100
Br483      Br  0.25643380  0.90410870  0.03860044     0.00500
Br484      Br  0.30286637  0.01333737  0.96331713    -0.03900
Br485      Br  0.32915156  0.05023272  0.09566648     0.00600
Br486      Br  0.21865472  0.01848601  0.99340789    -0.03200
Br487      Br  0.24391660  0.96341894  0.07027228    -0.04100
Br488      Br  0.31150187  0.95450383  0.92903991    -0.00100
C489        C  0.53693796  0.13932180  0.07661670     0.01300
C490        C  0.52056216  0.15484354  0.05467992     0.04200
C491        C  0.48843907  0.15636199  0.05666300    -0.11900
C492        C  0.47261361  0.14236792  0.08049312     0.23500
C493        C  0.48898468  0.12719904  0.10267955    -0.12500
C494        C  0.52107265  0.12569004  0.10078660     0.04900
C495        C  0.43867397  0.14280181  0.08171495     0.27300
C496        C  0.42347028  0.16044547  0.10215142    -0.13200
C497        C  0.39135482  0.15963435  0.10474279     0.05400
C498        C  0.37433157  0.14129474  0.08666433    -0.09100
C499        C  0.38954836  0.12413551  0.06554382     0.06200
C500        C  0.42165459  0.12490435  0.06311355    -0.13500
Br501      Br  0.46726483  0.10817994  0.13543183    -0.05600
Br502      Br  0.54178868  0.17263401  0.02060672     0.00100
Br503      Br  0.37066118  0.18440564  0.13214325     0.00500
Br504      Br  0.44252300  0.10120109  0.03456328    -0.03900
Br505      Br  0.54330693  0.10559663  0.13203793     0.00600
Br506      Br  0.46585417  0.17707057  0.02634761    -0.03200
Br507      Br  0.44679768  0.18579474  0.12639931    -0.04100
Br508      Br  0.36676556  0.09844814  0.04114506    -0.00100
C509        C  0.15621488  0.43185640  0.97682102     0.01300
C510        C  0.17167887  0.42841994  0.00576693     0.04200
C511        C  0.17626819  0.45026251  0.02596130    -0.11900
C512        C  0.16519656  0.47543645  0.01733216     0.23500
C513        C  0.15033839  0.47892684  0.98811591    -0.12500
C514        C  0.14608845  0.45723237  0.96778581     0.04900
C515        C  0.16811336  0.49829849  0.03912850     0.27300
C516        C  0.14510184  0.50303747  0.06173281    -0.13200
C517        C  0.14533904  0.52667813  0.07938748     0.05400
C518        C  0.16854416  0.54585027  0.07418863    -0.09100
C519        C  0.19238772  0.54041070  0.05251654     0.06200
C520        C  0.19224666  0.51657400  0.03523948    -0.13500
Br521      Br  0.13517722  0.51343876  0.97632889    -0.05600
Br522      Br  0.18484627  0.39358812  0.01870826     0.00100
Br523      Br  0.11221716  0.53340892  0.10857264     0.00500
Br524      Br  0.22456250  0.50904674  0.00543062    -0.03900
Br525      Br  0.12728345  0.46247411  0.92700155     0.00600
Br526      Br  0.19698759  0.44575397  0.06578616    -0.03200
Br527      Br  0.11238484  0.47755365  0.06717431    -0.04100
Br528      Br  0.22551346  0.56538098  0.04643537    -0.00100
C529        C  0.16143634  0.29806787  0.96325669     0.01300
C530        C  0.18727687  0.28450615  0.95136404     0.04200
C531        C  0.19900610  0.26259437  0.96784270    -0.11900
C532        C  0.18519898  0.25429132  0.99627063     0.23500
C533        C  0.15871280  0.26699939  0.00745390    -0.12500
C534        C  0.14682492  0.28887605  0.99102706     0.04900
C535        C  0.19989762  0.23339871  0.01545017     0.27300
C536        C  0.19415219  0.20648701  0.00902921    -0.13200
C537        C  0.20998512  0.18674441  0.02576879     0.05400
C538        C  0.23098720  0.19391109  0.04972519    -0.09100
C539        C  0.23604746  0.22099864  0.05661273     0.06200
C540        C  0.22073869  0.24065114  0.03927637    -0.13500
Br541      Br  0.13914872  0.25453750  0.04563307    -0.05600
Br542      Br  0.20847473  0.29693790  0.91401150     0.00100
Br543      Br  0.20458092  0.15014892  0.01366717     0.00500
Br544      Br  0.22860187  0.27770843  0.04766748    -0.03900
Br545      Br  0.11013364  0.30573420  0.00646583     0.00600
Br546      Br  0.23471584  0.24432768  0.95217371    -0.03200
Br547      Br  0.16497051  0.19689820  0.97674816    -0.04100
Br548      Br  0.26322453  0.23154662  0.09033989    -0.00100
C549        C  0.77413502  0.43601994  0.94954147     0.01300
C550        C  0.75259063  0.45565618  0.94115126     0.04200
C551        C  0.75276705  0.48043359  0.95652549    -0.11900
C552        C  0.77416983  0.48564794  0.98056324     0.23500
C553        C  0.79486515  0.46579588  0.98985753    -0.12500
C554        C  0.79479548  0.44100659  0.97459929     0.04900
C555        C  0.77511824  0.51194484  0.99635740     0.27300
C556        C  0.79234662  0.53283571  0.98307423    -0.13200
C557        C  0.79647794  0.55667267  0.99994401     0.05400
C558        C  0.78342141  0.55964210  0.03038463    -0.09100
C559        C  0.76456287  0.53919147  0.04268630     0.06200
C560        C  0.76042020  0.51547837  0.02565397    -0.13500
Br561      Br  0.82385605  0.47295223  0.02323788    -0.05600
Br562      Br  0.72147315  0.44826679  0.90999844     0.00100
Br563      Br  0.82185677  0.58423050  0.98183208     0.00500
Br564      Br  0.73496999  0.48741780  0.04248336    -0.03900
Br565      Br  0.82408710  0.41459071  0.98769541     0.00600
Br566      Br  0.72381541  0.50745334  0.94474677    -0.03200
Br567      Br  0.81107592  0.52824813  0.94206926    -0.04100
Br568      Br  0.74351997  0.54364924  0.08250163    -0.00100
C569        C  0.74095071  0.30008555  0.93588484     0.01300
C570        C  0.75738827  0.27627582  0.94061598     0.04200
C571        C  0.74290366  0.25421459  0.95467951    -0.11900
C572        C  0.71234809  0.25600318  0.96504148     0.23500
C573        C  0.69585597  0.27957449  0.96027928    -0.12500
C574        C  0.70980921  0.30132272  0.94505823     0.04900
C575        C  0.69799803  0.23353499  0.98235420     0.27300
C576        C  0.67887661  0.21538322  0.96644206    -0.13200
C577        C  0.66462950  0.19458506  0.98323793     0.05400
C578        C  0.66978277  0.19171213  0.01599601    -0.09100
C579        C  0.68948113  0.20961889  0.03172917     0.06200
C580        C  0.70343060  0.23050889  0.01494323    -0.13500
Br581      Br  0.65431781  0.28223233  0.97561098    -0.05600
Br582      Br  0.80032842  0.27396599  0.93004497     0.00100
Br583      Br  0.63689722  0.17092504  0.96151406     0.00500
Br584      Br  0.73040595  0.25495698  0.03643219    -0.03900
Br585      Br  0.68537689  0.33214013  0.93549458     0.00600
Br586      Br  0.76504655  0.22155358  0.96072169    -0.03200
Br587      Br  0.67246372  0.21902918  0.92156010    -0.04100
Br588      Br  0.69891697  0.20485689  0.07595347    -0.00100
C589        C  0.87841797  0.36575094  0.89790415     0.01300
C590        C  0.89462977  0.38925464  0.90513159     0.04200
C591        C  0.92679695  0.38904080  0.90656225    -0.11900
C592        C  0.94293236  0.36558262  0.89984185     0.23500
C593        C  0.92683313  0.34230356  0.89171732    -0.12500
C594        C  0.89462011  0.34227833  0.89114352     0.04900
C595        C  0.97677546  0.36516630  0.90266543     0.27300
C596        C  0.99531295  0.37534558  0.87819003    -0.13200
C597        C  0.02737242  0.37579517  0.88151078     0.05400
C598        C  0.04105379  0.36570270  0.90926234    -0.09100
C599        C  0.02235255  0.35533582  0.93364674     0.06200
C600        C  0.99032908  0.35515982  0.93034437    -0.13500
Br601      Br  0.94910792  0.31047563  0.88145640    -0.05600
Br602      Br  0.87292418  0.42156112  0.91461773     0.00100
Br603      Br  0.05229734  0.38946469  0.84735327     0.00500
Br604      Br  0.96474342  0.34171214  0.96406670    -0.03900
Br605      Br  0.87282139  0.31027411  0.87994780     0.00600
Br606      Br  0.94890436  0.42066331  0.91870776    -0.03200
Br607      Br  0.97660153  0.38858039  0.84005781    -0.04100
Br608      Br  0.04011969  0.34287563  0.97263566    -0.00100
C609        C  0.67698447  0.55215654  0.45422125     0.01300
C610        C  0.64919707  0.53993512  0.46338387     0.04200
C611        C  0.64920864  0.51392013  0.47539418    -0.11900
C612        C  0.67685932  0.49980842  0.47787207     0.23500
C613        C  0.70455798  0.51177437  0.46834955    -0.12500
C614        C  0.70469701  0.53798321  0.45679225     0.04900
C615        C  0.67662244  0.47270815  0.49156497     0.27300
C616        C  0.68090197  0.46927314  0.52430404    -0.13200
C617        C  0.67705669  0.44405952  0.53800136     0.05400
C618        C  0.66855048  0.42229070  0.51901281    -0.09100
C619        C  0.66571778  0.42545272  0.48608377     0.06200
C620        C  0.67003905  0.45061388  0.47232164    -0.13500
Br621      Br  0.74221637  0.49210066  0.47134703    -0.05600
Br622      Br  0.61116151  0.55926006  0.46147916     0.00100
Br623      Br  0.68140738  0.43978160  0.58311257     0.00500
Br624      Br  0.66656126  0.45504239  0.42722255    -0.03900
Br625      Br  0.74282192  0.55402108  0.44363343     0.00600
Br626      Br  0.61140451  0.49772617  0.48943316    -0.03200
Br627      Br  0.69087512  0.49939831  0.55048064    -0.04100
Br628      Br  0.65627626  0.39518692  0.45993866    -0.00100
C629        C  0.67666822  0.35689463  0.65661497     0.01300
C630        C  0.69645020  0.33693374  0.66780092     0.04200
C631        C  0.70916441  0.33892810  0.69823040    -0.11900
C632        C  0.70227546  0.36086971  0.71750702     0.23500
C633        C  0.68244890  0.38074107  0.70646548    -0.12500
C634        C  0.66958269  0.37874265  0.67611299     0.04900
C635        C  0.71602461  0.36301495  0.74939665     0.27300
C636        C  0.70063732  0.35222516  0.77572119    -0.13200
C637        C  0.71412609  0.35342231  0.80584782     0.05400
C638        C  0.74303401  0.36561073  0.80975158    -0.09100
C639        C  0.75840484  0.37643732  0.78329754     0.06200
C640        C  0.74484070  0.37520006  0.75320887    -0.13500
Br641      Br  0.67312198  0.41073778  0.73302898    -0.05600
Br642      Br  0.70775279  0.30762658  0.64092285     0.00100
Br643      Br  0.69387816  0.33655477  0.84118707     0.00500
Br644      Br  0.76565205  0.39009544  0.71699801    -0.03900
Br645      Br  0.64123140  0.40546056  0.66189411     0.00600
Br646      Br  0.73649466  0.31185673  0.71355372    -0.03200
Br647      Br  0.66126990  0.33537215  0.77016645    -0.04100
Br648      Br  0.79769476  0.39365026  0.78817953    -0.00100
C649        C  0.29354163  0.46005858  0.56282602     0.01300
C650        C  0.31859470  0.47739279  0.56805595     0.04200
C651        C  0.31986421  0.50209075  0.55256059    -0.11900
C652        C  0.29590710  0.50985510  0.53242669     0.23500
C653        C  0.27005321  0.49342190  0.52878764    -0.12500
C654        C  0.26886891  0.46854981  0.54383240     0.04900
C655        C  0.29851724  0.53488755  0.51416753     0.27300
C656        C  0.28965505  0.55909433  0.52783480    -0.13200
C657        C  0.29377544  0.58299511  0.51108207     0.05400
C658        C  0.30657458  0.58270275  0.48030870    -0.09100
C659        C  0.31442896  0.55819447  0.46630890     0.06200
C660        C  0.31058728  0.53441969  0.48330740    -0.13500
Br661      Br  0.23645332  0.50507146  0.50280724    -0.05600
Br662      Br  0.35211184  0.46726354  0.59510353     0.00100
Br663      Br  0.28346951  0.61601995  0.53149890     0.00500
Br664      Br  0.32208873  0.50099852  0.46454645    -0.03900
Br665      Br  0.23271820  0.44671210  0.53930316     0.00600
Br666      Br  0.35489541  0.52514978  0.55795158    -0.03200
Br667      Br  0.27231623  0.55927818  0.56984068    -0.04100
Br668      Br  0.32916678  0.55672806  0.42327945    -0.00100
C669        C  0.17735776  0.37539000  0.83253893     0.01300
C670        C  0.16809186  0.35871149  0.80741749     0.04200
C671        C  0.18226205  0.36093131  0.77765760    -0.11900
C672        C  0.20595405  0.37951009  0.77290406     0.23500
C673        C  0.21534392  0.39608812  0.79784138    -0.12500
C674        C  0.20111994  0.39408600  0.82761877     0.04900
C675        C  0.22187519  0.38080235  0.74198121     0.27300
C676        C  0.24846036  0.36570170  0.73704342    -0.13200
C677        C  0.26323968  0.36617854  0.70749717     0.05400
C678        C  0.25192087  0.38242007  0.68293705    -0.09100
C679        C  0.22534090  0.39773317  0.68809117     0.06200
C680        C  0.21023433  0.39670562  0.71748680    -0.13500
Br681      Br  0.24788251  0.42147840  0.79098290    -0.05600
Br682      Br  0.13753886  0.33139495  0.81393251     0.00100
Br683      Br  0.29771150  0.34303888  0.70042574     0.00500
Br684      Br  0.17352832  0.41706178  0.72444498    -0.03900
Br685      Br  0.21377121  0.41774351  0.86107524     0.00600
Br686      Br  0.16967615  0.33821372  0.74330161    -0.03200
Br687      Br  0.26439205  0.34420284  0.77097214    -0.04100
Br688      Br  0.21016295  0.42113808  0.65561026    -0.00100
C689        C  0.38806223  0.36514085  0.58504174     0.01300
C690        C  0.40019279  0.34165982  0.59805881     0.04200
C691        C  0.43180119  0.33660105  0.59597528    -0.11900
C692        C  0.45139906  0.35518948  0.58135664     0.23500
C693        C  0.43919485  0.37833986  0.56774748    -0.12500
C694        C  0.40753656  0.38308466  0.56904561     0.04900
C695        C  0.48496394  0.35088982  0.58056121     0.27300
C696        C  0.50314186  0.35911703  0.60622114    -0.13200
C697        C  0.53524752  0.35786878  0.60415414     0.05400
C698        C  0.54935127  0.34886615  0.57610850    -0.09100
C699        C  0.53103194  0.33989667  0.55073951     0.06200
C700        C  0.49890569  0.34061944  0.55317810    -0.13500
Br701      Br  0.46616391  0.40397167  0.54813450    -0.05600
Br702      Br  0.37331780  0.31574800  0.61732481     0.00100
Br703      Br  0.55975778  0.36794074  0.64017724     0.00500
Br704      Br  0.47374696  0.32840822  0.51862880    -0.03900
Br705      Br  0.39128663  0.41472360  0.54977895     0.00600
Br706      Br  0.44837129  0.30426537  0.61307202    -0.03200
Br707      Br  0.48391420  0.37291669  0.64383369    -0.04100
Br708      Br  0.54953434  0.32880448  0.51146554    -0.00100
C709        C  0.15522475  0.07490199  0.48141919     0.01300
C710        C  0.17674686  0.07254762  0.50611707     0.04200
C711        C  0.18009368  0.04822579  0.52208669    -0.11900
C712        C  0.16160483  0.02635940  0.51387178     0.23500
C713        C  0.13962363  0.02882673  0.48979484    -0.12500
C714        C  0.13638837  0.05302076  0.47361821     0.04900
C715        C  0.16448991  0.00095992  0.53126353     0.27300
C716        C  0.18257845  0.98036225  0.51888713    -0.13200
C717        C  0.18446751  0.95596935  0.53492249     0.05400
C718        C  0.16830265  0.95215457  0.56350559    -0.09100
C719        C  0.15030227  0.97291379  0.57594488     0.06200
C720        C  0.14842353  0.99723209  0.55980411    -0.13500
Br721      Br  0.11361920  0.99900935  0.47945956    -0.05600
Br722      Br  0.20226633  0.10228704  0.51775555     0.00100
Br723      Br  0.20998904  0.92816268  0.51806897     0.00500
Br724      Br  0.12311655  0.02536689  0.57618454    -0.03900
Br725      Br  0.10450839  0.05653701  0.44238202     0.00600
Br726      Br  0.21009033  0.04459012  0.55520998    -0.03200
Br727      Br  0.20449816  0.98563493  0.47974376    -0.04100
Br728      Br  0.12634016  0.96767039  0.61391005    -0.00100
C729        C  0.25073199  0.14387012  0.18868435     0.01300
C730        C  0.24969717  0.12090332  0.20780264     0.04200
C731        C  0.23836362  0.12234331  0.23886688    -0.11900
C732        C  0.22765617  0.14660344  0.25089314     0.23500
C733        C  0.22961534  0.16974286  0.23234068    -0.12500
C734        C  0.24150917  0.16849134  0.20140127     0.04900
C735        C  0.21305608  0.14737475  0.28254826     0.27300
C736        C  0.18165062  0.14149606  0.28556171    -0.13200
C737        C  0.16792380  0.14059506  0.31563222     0.05400
C738        C  0.18539351  0.14640175  0.34282461    -0.09100
C739        C  0.21671220  0.15302677  0.33965689     0.06200
C740        C  0.23059806  0.15307761  0.30959299    -0.13500
Br741      Br  0.21508187  0.20293145  0.24923619    -0.05600
Br742      Br  0.26503369  0.08752302  0.19212380     0.00100
Br743      Br  0.12561860  0.12976959  0.31942531     0.00500
Br744      Br  0.27371440  0.16071474  0.30523351    -0.03900
Br745      Br  0.24373390  0.20038985  0.17626616     0.00600
Br746      Br  0.23724589  0.09104907  0.26514421    -0.03200
Br747      Br  0.15757864  0.13448172  0.24825600    -0.04100
Br748      Br  0.24032526  0.16354114  0.37611249    -0.00100
C749        C  0.18357883  0.20653280  0.48172323     0.01300
C750        C  0.21499334  0.20550298  0.48976398     0.04200
C751        C  0.22917280  0.22731050  0.50455915    -0.11900
C752        C  0.21195365  0.24991258  0.51230310     0.23500
C753        C  0.18048768  0.25070250  0.50534356    -0.12500
C754        C  0.16635495  0.22926007  0.48975381     0.04900
C755        C  0.22704342  0.27318114  0.52713926     0.27300
C756        C  0.22816396  0.27545504  0.56028929    -0.13200
C757        C  0.24215813  0.29770157  0.57429551     0.05400
C758        C  0.25471387  0.31793563  0.55512793    -0.09100
C759        C  0.25337903  0.31572486  0.52192208     0.06200
C760        C  0.23981937  0.29325139  0.50798576    -0.13500
Br761      Br  0.15699956  0.28159136  0.51681551    -0.05600
Br762      Br  0.23865675  0.17386567  0.48203254     0.00100
Br763      Br  0.24273225  0.30099655  0.61977457     0.00500
Br764      Br  0.23895868  0.28966213  0.46259616    -0.03900
Br765      Br  0.12392039  0.23223439  0.47768844     0.00600
Br766      Br  0.27239456  0.22655839  0.51391317    -0.03200
Br767      Br  0.21014392  0.24814580  0.58638697    -0.04100
Br768      Br  0.27122455  0.34289425  0.49539996    -0.00100
C769        C  0.80776375  0.93993578  0.53975780     0.01300
C770        C  0.79590385  0.93871715  0.50874550     0.04200
C771        C  0.79432648  0.96183494  0.49018488    -0.11900
C772        C  0.80456548  0.98624509  0.50243796     0.23500
C773        C  0.81645869  0.98754676  0.53330666    -0.12500
C774        C  0.81802858  0.96446918  0.55198151     0.04900
C775        C  0.80266930  0.01053040  0.48272267     0.27300
C776        C  0.82646582  0.01684261  0.46148827    -0.13200
C777        C  0.82435046  0.03950633  0.44219499     0.05400
C778        C  0.79794375  0.05557647  0.44342946    -0.09100
C779        C  0.77411308  0.04915882  0.46476342     0.06200
C780        C  0.77667449  0.02686366  0.48460123    -0.13500
Br781      Br  0.83086638  0.02102782  0.54971346    -0.05600
Br782      Br  0.78027543  0.90573848  0.49200042     0.00100
Br783      Br  0.85866018  0.04930257  0.41571810     0.00500
Br784      Br  0.74457117  0.01847405  0.51443112    -0.03900
Br785      Br  0.83568337  0.96642313  0.59371889     0.00600
Br786      Br  0.77798772  0.96033104  0.44785424    -0.03200
Br787      Br  0.86198539  0.99429459  0.45905368    -0.04100
Br788      Br  0.73717344  0.06998897  0.46589053    -0.00100
C789        C  0.75943673  0.12223447  0.29828814     0.01300
C790        C  0.75152200  0.09801686  0.28354616     0.04200
C791        C  0.73624501  0.09807435  0.25426119    -0.11900
C792        C  0.72934894  0.12225632  0.23930190     0.23500
C793        C  0.73854058  0.14635203  0.25311928    -0.12500
C794        C  0.75349233  0.14640016  0.28250486     0.04900
C795        C  0.71164803  0.12261425  0.20943711     0.27300
C796        C  0.72679829  0.12039982  0.18021941    -0.13200
C797        C  0.71013948  0.12198446  0.15185939     0.05400
C798        C  0.67810406  0.12644483  0.15258339    -0.09100
C799        C  0.66304918  0.12878705  0.18211972     0.06200
C800        C  0.67978381  0.12652143  0.21037840    -0.13500
Br801      Br  0.72986954  0.17938479  0.23183820    -0.05600
Br802      Br  0.76310333  0.06466190  0.30236500     0.00100
Br803      Br  0.73171108  0.11687494  0.11238182     0.00500
Br804      Br  0.65930169  0.12922031  0.25074651    -0.03900
Br805      Br  0.76419869  0.17993151  0.30132999     0.00600
Br806      Br  0.72433251  0.06511064  0.23461605    -0.03200
Br807      Br  0.77061086  0.11549939  0.17926019    -0.04100
Br808      Br  0.61992948  0.13692702  0.18455451    -0.00100
C809        C  0.68057832  0.29248792  0.51259344     0.01300
C810        C  0.71220075  0.28702358  0.51424060     0.04200
C811        C  0.72446637  0.26571906  0.49706587    -0.11900
C812        C  0.70524406  0.24985999  0.47818264     0.23500
C813        C  0.67375409  0.25529821  0.47632696    -0.12500
C814        C  0.66136138  0.27653170  0.49358201     0.04900
C815        C  0.71831544  0.22728624  0.46051742     0.27300
C816        C  0.73043098  0.23131030  0.43008988    -0.13200
C817        C  0.74510699  0.21039463  0.41427964     0.05400
C818        C  0.74725728  0.18517059  0.42870050    -0.09100
C819        C  0.73446394  0.18113603  0.45906670     0.06200
C820        C  0.71993524  0.20216180  0.47482574    -0.13500
Br821      Br  0.64774130  0.23330755  0.45033621    -0.05600
Br822      Br  0.73914351  0.30927180  0.53892359     0.00100
Br823      Br  0.76176726  0.21666866  0.37276923     0.00500
Br824      Br  0.70274281  0.19694092  0.51645015    -0.03900
Br825      Br  0.61776802  0.28248601  0.49254409     0.00600
Br826      Br  0.76768988  0.25809586  0.49924229    -0.03200
Br827      Br  0.72692853  0.26571238  0.41035831    -0.04100
Br828      Br  0.73897982  0.14762484  0.48062525    -0.00100
C829        C  0.88952658  0.13567513  0.39503733     0.01300
C830        C  0.90444982  0.12969402  0.42371727     0.04200
C831        C  0.93631618  0.13300051  0.42621581    -0.11900
C832        C  0.95332345  0.14262752  0.40027410     0.23500
C833        C  0.93839012  0.14906104  0.37183163    -0.12500
C834        C  0.90657586  0.14534795  0.36908158     0.04900
C835        C  0.98707236  0.14499441  0.40273454     0.27300
C836        C  0.00035159  0.16676293  0.41846192    -0.13200
C837        C  0.03219820  0.16768911  0.42345897     0.05400
C838        C  0.05099121  0.14692555  0.41225155    -0.09100
C839        C  0.03764157  0.12585083  0.39491596     0.06200
C840        C  0.00576326  0.12477115  0.39054980    -0.13500
Br841      Br  0.96165629  0.16304395  0.33672980    -0.05600
Br842      Br  0.88169613  0.11557477  0.45921509     0.00100
Br843      Br  0.04929351  0.19672109  0.44741811     0.00500
Br844      Br  0.98739643  0.09527781  0.36831666    -0.03900
Br845      Br  0.88634372  0.15449639  0.33006076     0.00600
Br846      Br  0.95692583  0.12383941  0.46502411    -0.03200
Br847      Br  0.97453827  0.19499913  0.43371951    -0.04100
Br848      Br  0.06275753  0.09884537  0.37565964    -0.00100
loop_ 
_geom_bond_atom_site_label_1 
_geom_bond_atom_site_label_2 
_geom_bond_distance 
_geom_bond_site_symmetry_2 
_ccdc_geom_bond_type 
In1           O3   2.242       .  S
In1           O4   2.244       .  S
In1          O12   2.253       .  S
In1           O6   2.246       .  S
In1           O8   2.243       .  S
In1           O9   2.247       .  S
In1          O10   2.235       .  S
In1          O13   2.254       .  S
C2            O8   1.261       .  A
C2           O10   1.259       .  A
C2          C829   1.474       .  S
O3           C11   1.260       .  A
O4           C11   1.262       .  A
C5           O12   1.261       .  A
C5            O6   1.259       .  A
C5          C789   1.483       .  S
C7            O9   1.258       .  A
C7           O13   1.260       .  A
C7          C778   1.480       .  S
C11         C818   1.480       .  S
In14         O16   2.242       .  S
In14         O17   2.250       .  S
In14         O25   2.240       .  S
In14         O19   2.258       .  S
In14         O21   2.258       .  S
In14         O22   2.242       .  S
In14         O23   2.240       .  S
In14         O26   2.254       .  S
C15          O21   1.261       .  A
C15          O23   1.257       .  A
C15         C838   1.483       .  S
O16          C24   1.260       .  A
O17          C24   1.261       .  A
C18          O25   1.258       .  A
C18          O19   1.261       .  A
C18         C749   1.484       .  S
C20          O22   1.261       .  A
C20          O26   1.261       .  A
C20         C709   1.480       .  S
C24         C738   1.478       .  S
In27         O29   2.239       .  S
In27         O30   2.244       .  S
In27         O38   2.245       .  S
In27         O32   2.240       .  S
In27         O34   2.242       .  S
In27         O35   2.243       .  S
In27         O36   2.244       .  S
In27         O39   2.256       .  S
C28          O34   1.260       .  A
C28          O36   1.259       .  A
C28         C689   1.476       .  S
O29          C37   1.260       .  A
O30          C37   1.261       .  A
C31          O38   1.260       .  A
C31          O32   1.260       .  A
C31         C678   1.480       .  S
C33          O35   1.259       .  A
C33          O39   1.259       .  A
C33         C649   1.482       .  S
C37         C758   1.475       .  S
In40         O42   2.253       .  S
In40         O43   2.238       .  S
In40         O51   2.241       .  S
In40         O45   2.247       .  S
In40         O47   2.252       .  S
In40         O48   2.247       .  S
In40         O49   2.243       .  S
In40         O52   2.239       .  S
C41          O47   1.259       .  A
C41          O49   1.259       .  A
C41         C698   1.479       .  S
O42          C50   1.261       .  A
O43          C50   1.258       .  A
C44          O51   1.258       .  A
C44          O45   1.259       .  A
C44         C809   1.475       .  S
C46          O48   1.261       .  A
C46          O52   1.260       .  A
C46         C618   1.472       .  S
C50         C629   1.476       .  S
In53         O55   2.238       .  S
In53         O56   2.248       .  S
In53         O64   2.243       .  S
In53         O58   2.249       .  S
In53         O60   2.252       .  S
In53         O61   2.248       .  S
In53         O62   2.245       .  S
In53         O65   2.244       .  S
C54          O60   1.260       .  A
C54          O62   1.258       .  A
C54         C589   1.477       .  S
O55          C63   1.259       .  A
O56          C63   1.261       .  A
C57          O64   1.260       .  A
C57          O58   1.260       .  A
C57         C569   1.485       .  S
C59          O61   1.261       .  A
C59          O65   1.260       .  A
C59         C549   1.485       .  S
C63         C638   1.477       .  S
In66         O68   2.241       .  S
In66         O69   2.237       .  S
In66         O77   2.252       .  S
In66         O71   2.247       .  S
In66         O73   2.236       .  S
In66         O74   2.257       .  S
In66         O75   2.242       .  S
In66         O78   2.239       .  S
C67          O73   1.262       .  A
C67          O75   1.263       .  A
C67         C598   1.480       .  S
O68          C76   1.260       .  A
O69          C76   1.260       .  A
C70          O77   1.257       .  A
C70          O71   1.256       .  A
C70         C669   1.479       .  S
C72          O74   1.258       .  A
C72          O78   1.257       .  A
C72         C509   1.473       .  S
C76         C529   1.477       .  S
In79         O81   2.251       .  S
In79         O82   2.236       .  S
In79         O90   2.249       .  S
In79         O84   2.239       .  S
In79         O86   2.244       .  S
In79         O87   2.245       .  S
In79         O88   2.245       .  S
In79         O91   2.245       .  S
C80          O86   1.259       .  A
C80          O88   1.260       .  A
C80         C498   1.476       .  S
O81          C89   1.261       .  A
O82          C89   1.261       .  A
C83          O90   1.260       .  A
C83          O84   1.259       .  A
C83         C538   1.479       .  S
C85          O87   1.259       .  A
C85          O91   1.259       .  A
C85         C469   1.481       .  S
C89         C729   1.480       .  S
In92         O94   2.238       .  S
In92         O95   2.246       .  S
In92        O103   2.239       .  S
In92         O97   2.257       .  S
In92         O99   2.259       .  S
In92        O100   2.244       .  S
In92        O101   2.247       .  S
In92        O104   2.233       .  S
C93          O99   1.257       .  A
C93         O101   1.256       .  A
C93         C489   1.476       .  S
O94         C102   1.261       .  A
O95         C102   1.261       .  A
C96         O103   1.257       .  A
C96          O97   1.260       .  A
C96         C798   1.486       .  S
C98         O100   1.262       .  A
C98         O104   1.260       .  A
C98         C449   1.468       .  S
C102        C578   1.478       .  S
In105       O107   2.241       .  S
In105       O108   2.245       .  S
In105       O116   2.254       .  S
In105       O110   2.242       .  S
In105       O112   2.245       .  S
In105       O113   2.248       .  S
In105       O114   2.244       .  S
In105       O117   2.240       .  S
C106        O112   1.259       .  A
C106        O114   1.259       .  A
C106        C429   1.472       .  S
O107        C115   1.258       .  A
O108        C115   1.259       .  A
C109        O116   1.261       .  A
C109        O110   1.259       .  A
C109        C398   1.478       .  S
C111        O113   1.263       .  A
C111        O117   1.261       .  A
C111        C769   1.480       .  S
C115        C418   1.481       .  S
In118       O120   2.246       .  S
In118       O121   2.239       .  S
In118       O129   2.255       .  S
In118       O123   2.246       .  S
In118       O125   2.246       .  S
In118       O126   2.243       .  S
In118       O127   2.248       .  S
In118       O130   2.245       .  S
C119        O125   1.260       .  A
C119        O127   1.259       .  A
C119        C438   1.480       .  S
O120        C128   1.261       .  A
O121        C128   1.260       .  A
C122        O129   1.259       .  A
C122        O123   1.259       .  A
C122        C378   1.484       .  S
C124        O126   1.259       .  A
C124        O130   1.259       .  A
C124        C718   1.477       .  S
C128        C358   1.479       .  S
In131       O133   2.258       .  S
In131       O134   2.235       .  S
In131       O142   2.253       .  S
In131       O136   2.260       .  S
In131       O138   2.246       .  S
In131       O139   2.258       .  S
In131       O140   2.249       .  S
In131       O143   2.252       .  S
C132        O138   1.262       .  A
C132        O140   1.261       .  A
C132        C329   1.486       .  S
O133        C141   1.262       .  A
O134        C141   1.260       .  A
C135        O142   1.258       .  A
C135        O136   1.259       .  A
C135        C309   1.483       .  S
C137        O139   1.257       .  A
C137        O143   1.257       .  A
C137        C658   1.484       .  S
C141        C369   1.482       .  S
In144       O146   2.241       .  S
In144       O147   2.260       .  S
In144       O155   2.249       .  S
In144       O149   2.246       .  S
In144       O151   2.256       .  S
In144       O152   2.249       .  S
In144       O153   2.240       .  S
In144       O156   2.252       .  S
C145        O151   1.261       .  A
C145        O153   1.259       .  A
C145        C338   1.478       .  S
O146        C154   1.258       .  A
O147        C154   1.260       .  A
C148        O155   1.259       .  A
C148        O149   1.259       .  A
C148        C409   1.478       .  S
C150        O152   1.259       .  A
C150        O156   1.259       .  A
C150        C609   1.480       .  S
C154        C289   1.481       .  S
In157       O159   2.256       .  S
In157       O160   2.247       .  S
In157       O168   2.240       .  S
In157       O162   2.255       .  S
In157       O164   2.252       .  S
In157       O165   2.261       .  S
In157       O166   2.241       .  S
In157       O169   2.242       .  S
C158        O164   1.260       .  A
C158        O166   1.260       .  A
C158        C269   1.474       .  S
O159        C167   1.259       .  A
O160        C167   1.259       .  A
C161        O168   1.259       .  A
C161        O162   1.261       .  A
C161        C249   1.479       .  S
C163        O165   1.261       .  A
C163        O169   1.258       .  A
C163        C478   1.480       .  S
C167        C349   1.480       .  S
In170       O172   2.247       .  S
In170       O173   2.241       .  S
In170       O181   2.248       .  S
In170       O175   2.248       .  S
In170       O177   2.254       .  S
In170       O178   2.240       .  S
In170       O179   2.242       .  S
In170       O182   2.242       .  S
C171        O177   1.260       .  A
C171        O179   1.257       .  A
C171        C278   1.477       .  S
O172        C180   1.262       .  A
O173        C180   1.260       .  A
C174        O181   1.260       .  A
C174        O175   1.260       .  A
C174        C389   1.485       .  S
C176        O178   1.259       .  A
C176        O182   1.259       .  A
C176        C458   1.473       .  S
C180        C238   1.473       .  S
In183       O185   2.253       .  S
In183       O186   2.256       .  S
In183       O194   2.250       .  S
In183       O188   2.247       .  S
In183       O190   2.263       .  S
In183       O191   2.243       .  S
In183       O192   2.253       .  S
In183       O195   2.261       .  S
C184        O190   1.258       .  A
C184        O192   1.257       .  A
C184        C209   1.482       .  S
O185        C193   1.259       .  A
O186        C193   1.258       .  A
C187        O194   1.262       .  A
C187        O188   1.261       .  A
C187        C229   1.481       .  S
C189        O191   1.260       .  A
C189        O195   1.261       .  A
C189        C558   1.486       .  S
C193        C298   1.488       .  S
In196       O198   2.243       .  S
In196       O199   2.242       .  S
In196       O207   2.244       .  S
In196       O201   2.257       .  S
In196       O203   2.254       .  S
In196       O204   2.240       .  S
In196       O205   2.245       .  S
In196       O208   2.253       .  S
C197        O203   1.263       .  A
C197        O205   1.260       .  A
C197        C218   1.482       .  S
O198        C206   1.260       .  A
O199        C206   1.260       .  A
C200        O207   1.259       .  A
C200        O201   1.261       .  A
C200        C318   1.486       .  S
C202        O204   1.259       .  A
C202        O208   1.261       .  A
C202        C518   1.481       .  S
C206        C258   1.472       .  S
C209        C210   1.413       .  A
C209        C214   1.413       .  A
C210        C211   1.408       .  A
C210       Br222   1.932       .  S
C211        C212   1.409       .  A
C211       Br226   1.930       .  S
C212        C215   1.489   1_655  S
C212        C213   1.410       .  A
C213        C214   1.411       .  A
C213       Br221   1.930       .  S
C214       Br225   1.931       .  S
C215        C216   1.410       .  A
C215        C220   1.409       .  A
C216        C217   1.409       .  A
C216       Br227   1.930   1_455  S
C217        C218   1.412       .  A
C217       Br223   1.931       .  S
C218        C219   1.414       .  A
C219        C220   1.410       .  A
C219       Br228   1.932       .  S
C220       Br224   1.930   1_455  S
C229        C230   1.413       .  A
C229        C234   1.412       .  A
C230        C231   1.409       .  A
C230       Br242   1.931       .  S
C231        C232   1.409       .  A
C231       Br246   1.930       .  S
C232        C235   1.487   1_554  S
C232        C233   1.409       .  A
C233        C234   1.408       .  A
C233       Br241   1.930   1_554  S
C234       Br245   1.930       .  S
C235        C236   1.410   1_556  A
C235        C240   1.410       .  A
C236        C237   1.409   1_554  A
C236       Br247   1.928       .  S
C237        C238   1.409       .  A
C237       Br243   1.931   1_556  S
C238        C239   1.408       .  A
C239        C240   1.407       .  A
C239       Br248   1.930       .  S
C240       Br244   1.929       .  S
C249        C250   1.413       .  A
C249        C254   1.412   1_556  A
C250        C251   1.407   1_556  A
C250       Br262   1.932       .  S
C251        C252   1.408       .  A
C251       Br266   1.930   1_554  S
C252        C255   1.483       .  S
C252        C253   1.408       .  A
C253        C254   1.407       .  A
C253       Br261   1.931       .  S
C254       Br265   1.925       .  S
C255        C256   1.409       .  A
C255        C260   1.409       .  A
C256        C257   1.406       .  A
C256       Br267   1.930       .  S
C257        C258   1.409       .  A
C257       Br263   1.931       .  S
C258        C259   1.410       .  A
C259        C260   1.407       .  A
C259       Br268   1.931       .  S
C260       Br264   1.929       .  S
C269        C270   1.411       .  A
C269        C274   1.410       .  A
C270        C271   1.408       .  A
C270       Br282   1.930       .  S
C271        C272   1.409       .  A
C271       Br286   1.930       .  S
C272        C275   1.482       .  S
C272        C273   1.409       .  A
C273        C274   1.406       .  A
C273       Br281   1.930       .  S
C274       Br285   1.931       .  S
C275        C276   1.407       .  A
C275        C280   1.408       .  A
C276        C277   1.407       .  A
C276       Br287   1.930       .  S
C277        C278   1.413       .  A
C277       Br283   1.931       .  S
C278        C279   1.412       .  A
C279        C280   1.407       .  A
C279       Br288   1.932       .  S
C280       Br284   1.930       .  S
C289        C290   1.413       .  A
C289        C294   1.413       .  A
C290        C291   1.409       .  A
C290       Br302   1.930       .  S
C291        C292   1.409       .  A
C291       Br306   1.929       .  S
C292        C295   1.487       .  S
C292        C293   1.408       .  A
C293        C294   1.408       .  A
C293       Br301   1.930       .  S
C294       Br305   1.932       .  S
C295        C296   1.407       .  A
C295        C300   1.408       .  A
C296        C297   1.409       .  A
C296       Br307   1.930       .  S
C297        C298   1.417       .  A
C297       Br303   1.932       .  S
C298        C299   1.417       .  A
C299        C300   1.409       .  A
C299       Br308   1.933       .  S
C300       Br304   1.932       .  S
C309        C310   1.414       .  A
C309        C314   1.414       .  A
C310        C311   1.409       .  A
C310       Br322   1.931       .  S
C311        C312   1.409       .  A
C311       Br326   1.930       .  S
C312        C315   1.487       .  S
C312        C313   1.409       .  A
C313        C314   1.409       .  A
C313       Br321   1.931       .  S
C314       Br325   1.931       .  S
C315        C316   1.409       .  A
C315        C320   1.408       .  A
C316        C317   1.410       .  A
C316       Br327   1.931       .  S
C317        C318   1.416       .  A
C317       Br323   1.932       .  S
C318        C319   1.415       .  A
C319        C320   1.408       .  A
C319       Br328   1.932       .  S
C320       Br324   1.931       .  S
C329        C330   1.417       .  A
C329        C334   1.415       .  A
C330        C331   1.408       .  A
C330       Br342   1.932       .  S
C331        C332   1.406       .  A
C331       Br346   1.933       .  S
C332        C335   1.483       .  S
C332        C333   1.407       .  A
C333        C334   1.409       .  A
C333       Br341   1.930       .  S
C334       Br345   1.931       .  S
C335        C336   1.408       .  A
C335        C340   1.408       .  A
C336        C337   1.409       .  A
C336       Br347   1.929       .  S
C337        C338   1.413       .  A
C337       Br343   1.930       .  S
C338        C339   1.412       .  A
C339        C340   1.406       .  A
C339       Br348   1.932       .  S
C340       Br344   1.931       .  S
C349        C350   1.413       .  A
C349        C354   1.414       .  A
C350        C351   1.406       .  A
C350       Br362   1.930       .  S
C351        C352   1.407       .  A
C351       Br366   1.931       .  S
C352        C355   1.483       .  S
C352        C353   1.408       .  A
C353        C354   1.409       .  A
C353       Br361   1.930       .  S
C354       Br365   1.930       .  S
C355        C356   1.408       .  A
C355        C360   1.408       .  A
C356        C357   1.407       .  A
C356       Br367   1.930       .  S
C357        C358   1.412       .  A
C357       Br363   1.929       .  S
C358        C359   1.413       .  A
C359        C360   1.407       .  A
C359       Br368   1.932       .  S
C360       Br364   1.930       .  S
C369        C370   1.413       .  A
C369        C374   1.414       .  A
C370        C371   1.407       .  A
C370       Br382   1.931       .  S
C371        C372   1.408       .  A
C371       Br386   1.930       .  S
C372        C375   1.486       .  S
C372        C373   1.409       .  A
C373        C374   1.410       .  A
C373       Br381   1.930       .  S
C374       Br385   1.931       .  S
C375        C376   1.408       .  A
C375        C380   1.408       .  A
C376        C377   1.407       .  A
C376       Br387   1.931       .  S
C377        C378   1.415       .  A
C377       Br383   1.933       .  S
C378        C379   1.415       .  A
C379        C380   1.409       .  A
C379       Br388   1.931       .  S
C380       Br384   1.930       .  S
C389        C390   1.416       .  A
C389        C394   1.416       .  A
C390        C391   1.408       .  A
C390       Br402   1.933       .  S
C391        C392   1.408       .  A
C391       Br406   1.931       .  S
C392        C395   1.486       .  S
C392        C393   1.407       .  A
C393        C394   1.409       .  A
C393       Br401   1.930       .  S
C394       Br405   1.932       .  S
C395        C396   1.409       .  A
C395        C400   1.408       .  A
C396        C397   1.408       .  A
C396       Br407   1.929       .  S
C397        C398   1.410       .  A
C397       Br403   1.929       .  S
C398        C399   1.413       .  A
C399        C400   1.408       .  A
C399       Br408   1.932       .  S
C400       Br404   1.930       .  S
C409        C410   1.413       .  A
C409        C414   1.413       .  A
C410        C411   1.406       .  A
C410       Br422   1.931       .  S
C411        C412   1.407       .  A
C411       Br426   1.931       .  S
C412        C415   1.481       .  S
C412        C413   1.407       .  A
C413        C414   1.407       .  A
C413       Br421   1.931       .  S
C414       Br425   1.930       .  S
C415        C416   1.406       .  A
C415        C420   1.407       .  A
C416        C417   1.406       .  A
C416       Br427   1.931       .  S
C417        C418   1.416       .  A
C417       Br423   1.933       .  S
C418        C419   1.415       .  A
C419        C420   1.407       .  A
C419       Br428   1.934       .  S
C420       Br424   1.931       .  S
C429        C430   1.409       .  A
C429        C434   1.410       .  A
C430        C431   1.407       .  A
C430       Br442   1.930       .  S
C431        C432   1.409       .  A
C431       Br446   1.928       .  S
C432        C435   1.482   1_655  S
C432        C433   1.409       .  A
C433        C434   1.406       .  A
C433       Br441   1.931       .  S
C434       Br445   1.931       .  S
C435        C436   1.408       .  A
C435        C440   1.407       .  A
C436        C437   1.408       .  A
C436       Br447   1.930   1_455  S
C437        C438   1.413       .  A
C437       Br443   1.928       .  S
C438        C439   1.414       .  A
C439        C440   1.407       .  A
C439       Br448   1.932       .  S
C440       Br444   1.931       .  S
C449        C450   1.408   1_554  A
C449        C454   1.409       .  A
C450        C451   1.407       .  A
C450       Br462   1.929       .  S
C451        C452   1.409       .  A
C451       Br466   1.928       .  S
C452        C455   1.479   1_545  S
C452        C453   1.408   1_556  A
C453        C454   1.404       .  A
C453       Br461   1.931   1_545  S
C454       Br465   1.931       .  S
C455        C456   1.408       .  A
C455        C460   1.408       .  A
C456        C457   1.405       .  A
C456       Br467   1.932   1_565  S
C457        C458   1.412       .  A
C457       Br463   1.933       .  S
C458        C459   1.411       .  A
C459        C460   1.406       .  A
C459       Br468   1.930       .  S
C460       Br464   1.929   1_556  S
C469        C470   1.414       .  A
C469        C474   1.415       .  A
C470        C471   1.408       .  A
C470       Br482   1.930       .  S
C471        C472   1.407       .  A
C471       Br486   1.930   1_554  S
C472        C475   1.483   1_545  S
C472        C473   1.408       .  A
C473        C474   1.406       .  A
C473       Br481   1.932   1_545  S
C474       Br485   1.933       .  S
C475        C476   1.408       .  A
C475        C480   1.408   1_554  A
C476        C477   1.407       .  A
C476       Br487   1.931       .  S
C477        C478   1.411   1_554  A
C477       Br483   1.924       .  S
C478        C479   1.413       .  A
C479        C480   1.407       .  A
C479       Br488   1.930       .  S
C480       Br484   1.931   1_565  S
C489        C490   1.412       .  A
C489        C494   1.411       .  A
C490        C491   1.408       .  A
C490       Br502   1.931       .  S
C491        C492   1.409       .  A
C491       Br506   1.930       .  S
C492        C495   1.484       .  S
C492        C493   1.409       .  A
C493        C494   1.406       .  A
C493       Br501   1.930       .  S
C494       Br505   1.932       .  S
C495        C496   1.409       .  A
C495        C500   1.409       .  A
C496        C497   1.407       .  A
C496       Br507   1.929       .  S
C497        C498   1.411       .  A
C497       Br503   1.931       .  S
C498        C499   1.412       .  A
C499        C500   1.406       .  A
C499       Br508   1.931       .  S
C500       Br504   1.930       .  S
C509        C510   1.411   1_556  A
C509        C514   1.409       .  A
C510        C511   1.409       .  A
C510       Br522   1.930       .  S
C511        C512   1.409       .  A
C511       Br526   1.929       .  S
C512        C515   1.482       .  S
C512        C513   1.409   1_554  A
C513        C514   1.404       .  A
C513       Br521   1.931       .  S
C514       Br525   1.932       .  S
C515        C516   1.407       .  A
C515        C520   1.407       .  A
C516        C517   1.407       .  A
C516       Br527   1.931       .  S
C517        C518   1.415       .  A
C517       Br523   1.932       .  S
C518        C519   1.414       .  A
C519        C520   1.407       .  A
C519       Br528   1.931       .  S
C520       Br524   1.930       .  S
C529        C530   1.414       .  A
C529        C534   1.413       .  A
C530        C531   1.406       .  A
C530       Br542   1.933       .  S
C531        C532   1.407       .  A
C531       Br546   1.932       .  S
C532        C535   1.479   1_556  S
C532        C533   1.406   1_556  A
C533        C534   1.406   1_554  A
C533       Br541   1.930       .  S
C534       Br545   1.931   1_556  S
C535        C536   1.406       .  A
C535        C540   1.407       .  A
C536        C537   1.407       .  A
C536       Br547   1.931   1_554  S
C537        C538   1.415       .  A
C537       Br543   1.929       .  S
C538        C539   1.414       .  A
C539        C540   1.405       .  A
C539       Br548   1.932       .  S
C540       Br544   1.932       .  S
C549        C550   1.415       .  A
C549        C554   1.416       .  A
C550        C551   1.409       .  A
C550       Br562   1.931       .  S
C551        C552   1.407       .  A
C551       Br566   1.929       .  S
C552        C555   1.486       .  S
C552        C553   1.408       .  A
C553        C554   1.407       .  A
C553       Br561   1.932   1_556  S
C554       Br565   1.933       .  S
C555        C556   1.408       .  A
C555        C560   1.407   1_556  A
C556        C557   1.410       .  A
C556       Br567   1.931       .  S
C557        C558   1.416   1_556  A
C557       Br563   1.931       .  S
C558        C559   1.415       .  A
C559        C560   1.408       .  A
C559       Br568   1.931       .  S
C560       Br564   1.931       .  S
C569        C570   1.416       .  A
C569        C574   1.416       .  A
C570        C571   1.408       .  A
C570       Br582   1.932       .  S
C571        C572   1.407       .  A
C571       Br586   1.931       .  S
C572        C575   1.485       .  S
C572        C573   1.407       .  A
C573        C574   1.407       .  A
C573       Br581   1.931       .  S
C574       Br585   1.932       .  S
C575        C576   1.409       .  A
C575        C580   1.408   1_556  A
C576        C577   1.409       .  A
C576       Br587   1.929       .  S
C577        C578   1.412   1_556  A
C577       Br583   1.931       .  S
C578        C579   1.413       .  A
C579        C580   1.406       .  A
C579       Br588   1.932       .  S
C580       Br584   1.931       .  S
C589        C590   1.412       .  A
C589        C594   1.411       .  A
C590        C591   1.407       .  A
C590       Br602   1.931       .  S
C591        C592   1.409       .  A
C591       Br606   1.931       .  S
C592        C595   1.484       .  S
C592        C593   1.409       .  A
C593        C594   1.408       .  A
C593       Br601   1.930       .  S
C594       Br605   1.930       .  S
C595        C596   1.409       .  A
C595        C600   1.408       .  A
C596        C597   1.408   1_655  A
C596       Br607   1.930       .  S
C597        C598   1.414       .  A
C597       Br603   1.933       .  S
C598        C599   1.413       .  A
C599        C600   1.406   1_455  A
C599       Br608   1.931       .  S
C600       Br604   1.932       .  S
C609        C610   1.412       .  A
C609        C614   1.413       .  A
C610        C611   1.407       .  A
C610       Br622   1.932       .  S
C611        C612   1.409       .  A
C611       Br626   1.931       .  S
C612        C615   1.484       .  S
C612        C613   1.408       .  A
C613        C614   1.409       .  A
C613       Br621   1.929       .  S
C614       Br625   1.929       .  S
C615        C616   1.409       .  A
C615        C620   1.410       .  A
C616        C617   1.406       .  A
C616       Br627   1.930       .  S
C617        C618   1.410       .  A
C617       Br623   1.931       .  S
C618        C619   1.408       .  A
C619        C620   1.408       .  A
C619       Br628   1.929       .  S
C620       Br624   1.928       .  S
C629        C630   1.412       .  A
C629        C634   1.412       .  A
C630        C631   1.407       .  A
C630       Br642   1.931       .  S
C631        C632   1.408       .  A
C631       Br646   1.930       .  S
C632        C635   1.482       .  S
C632        C633   1.408       .  A
C633        C634   1.407       .  A
C633       Br641   1.930       .  S
C634       Br645   1.931       .  S
C635        C636   1.408       .  A
C635        C640   1.408       .  A
C636        C637   1.407       .  A
C636       Br647   1.930       .  S
C637        C638   1.412       .  A
C637       Br643   1.931       .  S
C638        C639   1.412       .  A
C639        C640   1.407       .  A
C639       Br648   1.932       .  S
C640       Br644   1.930       .  S
C649        C650   1.416       .  A
C649        C654   1.414       .  A
C650        C651   1.408       .  A
C650       Br662   1.931       .  S
C651        C652   1.408       .  A
C651       Br666   1.932       .  S
C652        C655   1.484       .  S
C652        C653   1.407       .  A
C653        C654   1.407       .  A
C653       Br661   1.929       .  S
C654       Br665   1.931       .  S
C655        C656   1.407       .  A
C655        C660   1.408       .  A
C656        C657   1.409       .  A
C656       Br667   1.931       .  S
C657        C658   1.416       .  A
C657       Br663   1.931       .  S
C658        C659   1.414       .  A
C659        C660   1.407       .  A
C659       Br668   1.932       .  S
C660       Br664   1.932       .  S
C669        C670   1.415       .  A
C669        C674   1.414       .  A
C670        C671   1.406       .  A
C670       Br682   1.933       .  S
C671        C672   1.407       .  A
C671       Br686   1.931       .  S
C672        C675   1.482       .  S
C672        C673   1.407       .  A
C673        C674   1.407       .  A
C673       Br681   1.930       .  S
C674       Br685   1.932       .  S
C675        C676   1.407       .  A
C675        C680   1.408       .  A
C676        C677   1.406       .  A
C676       Br687   1.931       .  S
C677        C678   1.414       .  A
C677       Br683   1.932       .  S
C678        C679   1.414       .  A
C679        C680   1.408       .  A
C679       Br688   1.932       .  S
C680       Br684   1.930       .  S
C689        C690   1.412       .  A
C689        C694   1.411       .  A
C690        C691   1.408       .  A
C690       Br702   1.932       .  S
C691        C692   1.409       .  A
C691       Br706   1.928       .  S
C692        C695   1.484       .  S
C692        C693   1.409       .  A
C693        C694   1.406       .  A
C693       Br701   1.931       .  S
C694       Br705   1.930       .  S
C695        C696   1.408       .  A
C695        C700   1.408       .  A
C696        C697   1.407       .  A
C696       Br707   1.930       .  S
C697        C698   1.412       .  A
C697       Br703   1.932       .  S
C698        C699   1.414       .  A
C699        C700   1.408       .  A
C699       Br708   1.931       .  S
C700       Br704   1.931       .  S
C709        C710   1.413       .  A
C709        C714   1.413       .  A
C710        C711   1.408       .  A
C710       Br722   1.930       .  S
C711        C712   1.408       .  A
C711       Br726   1.930       .  S
C712        C715   1.483       .  S
C712        C713   1.407       .  A
C713        C714   1.407       .  A
C713       Br721   1.932   1_545  S
C714       Br725   1.931       .  S
C715        C716   1.409   1_545  A
C715        C720   1.408   1_545  A
C716        C717   1.407       .  A
C716       Br727   1.929       .  S
C717        C718   1.412       .  A
C717       Br723   1.931       .  S
C718        C719   1.413       .  A
C719        C720   1.406       .  A
C719       Br728   1.933       .  S
C720       Br724   1.931   1_565  S
C729        C730   1.413       .  A
C729        C734   1.414       .  A
C730        C731   1.406       .  A
C730       Br742   1.932       .  S
C731        C732   1.407       .  A
C731       Br746   1.930       .  S
C732        C735   1.483       .  S
C732        C733   1.408       .  A
C733        C734   1.409       .  A
C733       Br741   1.930       .  S
C734       Br745   1.930       .  S
C735        C736   1.408       .  A
C735        C740   1.408       .  A
C736        C737   1.406       .  A
C736       Br747   1.931       .  S
C737        C738   1.412       .  A
C737       Br743   1.931       .  S
C738        C739   1.413       .  A
C739        C740   1.408       .  A
C739       Br748   1.931       .  S
C740       Br744   1.929       .  S
C749        C750   1.416       .  A
C749        C754   1.415       .  A
C750        C751   1.408       .  A
C750       Br762   1.933       .  S
C751        C752   1.407       .  A
C751       Br766   1.931       .  S
C752        C755   1.484       .  S
C752        C753   1.407       .  A
C753        C754   1.408       .  A
C753       Br761   1.931       .  S
C754       Br765   1.930       .  S
C755        C756   1.408       .  A
C755        C760   1.409       .  A
C756        C757   1.407       .  A
C756       Br767   1.929       .  S
C757        C758   1.411       .  A
C757       Br763   1.932       .  S
C758        C759   1.411       .  A
C759        C760   1.407       .  A
C759       Br768   1.931       .  S
C760       Br764   1.930       .  S
C769        C770   1.413       .  A
C769        C774   1.413       .  A
C770        C771   1.407       .  A
C770       Br782   1.931       .  S
C771        C772   1.408       .  A
C771       Br786   1.931       .  S
C772        C775   1.484   1_565  S
C772        C773   1.408       .  A
C773        C774   1.408       .  A
C773       Br781   1.930   1_565  S
C774       Br785   1.931       .  S
C775        C776   1.408       .  A
C775        C780   1.408       .  A
C776        C777   1.408       .  A
C776       Br787   1.930   1_545  S
C777        C778   1.414       .  A
C777       Br783   1.932       .  S
C778        C779   1.413       .  A
C779        C780   1.408       .  A
C779       Br788   1.930       .  S
C780       Br784   1.930       .  S
C789        C790   1.414       .  A
C789        C794   1.415       .  A
C790        C791   1.409       .  A
C790       Br802   1.931       .  S
C791        C792   1.408       .  A
C791       Br806   1.929       .  S
C792        C795   1.483       .  S
C792        C793   1.406       .  A
C793        C794   1.406       .  A
C793       Br801   1.933       .  S
C794       Br805   1.926       .  S
C795        C796   1.406       .  A
C795        C800   1.407       .  A
C796        C797   1.407       .  A
C796       Br807   1.931       .  S
C797        C798   1.419       .  A
C797       Br803   1.934       .  S
C798        C799   1.416       .  A
C799        C800   1.408       .  A
C799       Br808   1.932       .  S
C800       Br804   1.932       .  S
C809        C810   1.412       .  A
C809        C814   1.413       .  A
C810        C811   1.405       .  A
C810       Br822   1.931       .  S
C811        C812   1.408       .  A
C811       Br826   1.931       .  S
C812        C815   1.478       .  S
C812        C813   1.406       .  A
C813        C814   1.406       .  A
C813       Br821   1.930       .  S
C814       Br825   1.930       .  S
C815        C816   1.405       .  A
C815        C820   1.406       .  A
C816        C817   1.406       .  A
C816       Br827   1.932       .  S
C817        C818   1.414       .  A
C817       Br823   1.925       .  S
C818        C819   1.414       .  A
C819        C820   1.406       .  A
C819       Br828   1.931       .  S
C820       Br824   1.931       .  S
C829        C830   1.412       .  A
C829        C834   1.411       .  A
C830        C831   1.406       .  A
C830       Br842   1.933       .  S
C831        C832   1.409       .  A
C831       Br846   1.931       .  S
C832        C835   1.483       .  S
C832        C833   1.409       .  A
C833        C834   1.407       .  A
C833       Br841   1.929       .  S
C834       Br845   1.931       .  S
C835        C836   1.408   1_655  A
C835        C840   1.407   1_655  A
C836        C837   1.408       .  A
C836       Br847   1.931   1_455  S
C837        C838   1.415       .  A
C837       Br843   1.930       .  S
C838        C839   1.416       .  A
C839        C840   1.406       .  A
C839       Br848   1.932       .  S
C840       Br844   1.933   1_455  S
