geometry optimzed in LAMMPS
_audit_creation_date              2020-11-30 
_audit_creation_method            'lammps2cif' 
_symmetry_space_group_name_H-M    'P1' 
_symmetry_Int_Tables_number       1 
_symmetry_cell_setting            triclinic 
loop_ 
_symmetry_equiv_pos_as_xyz 
  x,y,z 
_cell_length_a                    47.24032744 
_cell_length_b                    47.18344964836552 
_cell_length_c                    33.43862824907757 
_cell_angle_alpha                 90.2778812937635 
_cell_angle_beta                  89.52280957428086 
_cell_angle_gamma                 90.08869812787827 
loop_ 
_atom_site_label 
_atom_site_type_symbol 
_atom_site_fract_x 
_atom_site_fract_y 
_atom_site_fract_z 
_atom_site_charge 
C1          C  0.17501688  0.50940653  0.16025990     0.79800
N2          N  0.16092160  0.51106575  0.12501655    -0.78500
C3          C  0.13240993  0.01490643  0.12478620     0.82200
N4          N  0.11782648  0.01659453  0.15986417    -0.78500
C5          C  0.13160041  0.01433121  0.19515756     0.82300
N6          N  0.16014587  0.51067856  0.19529741    -0.80200
C7          C  0.38923359  0.49103172  0.16389660     0.79800
N8          N  0.40452559  0.49152156  0.12918773    -0.78500
C9          C  0.43320279  0.48909392  0.12966390     0.82200
N10         N  0.44686396  0.48703096  0.16506399    -0.78500
C11         C  0.43198486  0.48725248  0.19993720     0.82300
N12         N  0.40325975  0.48900488  0.19924757    -0.80200
C13         C  0.02426245  0.14436642  0.16370009     0.79800
N14         N  0.02419211  0.12990079  0.12834605    -0.78500
C15         C  0.02082399  0.10127954  0.12775326     0.82200
N16         N  0.01815536  0.08691314  0.16262734    -0.78500
C17         C  0.01893564  0.10102667  0.19803669     0.82300
N18         N  0.02193850  0.12967637  0.19851884    -0.80200
C19         C  0.03962443  0.35906610  0.16227006     0.79800
N20         N  0.04088981  0.37352474  0.12708986    -0.78500
C21         C  0.04509552  0.40207671  0.12691494     0.82200
N22         N  0.04708025  0.41641118  0.16204540    -0.78500
C23         C  0.04501815  0.40232552  0.19721410     0.82300
N24         N  0.04150839  0.37377172  0.19724135    -0.80200
C25         C  0.04510534  0.41780921  0.08917382     0.42000
N26         N  0.02935257  0.44139447  0.03954879     0.00900
C27         C  0.10039666  0.03747537  0.25188449    -0.07000
H28         H  0.10169266  0.06040558  0.07658152     0.06400
C29         C  0.99712816  0.07065543  0.07157404    -0.07300
Co30       Co  0.07520211  0.47227369  0.32811169     0.74200
N31         N  0.08788348  0.02626735  0.03791457    -0.26500
Co32       Co  0.06186268  0.04457695  0.32803180     0.74100
C33         C  0.02078287  0.08573665  0.08971830     0.42100
N34         N  0.47225694  0.00506518  0.04112577     0.00500
N35         N  0.03599974  0.06233454  0.03895829     0.00600
N36         N  0.10942114  0.49041207  0.25391053    -0.47400
H37         H  0.09075533  0.43316843  0.07782516     0.06400
N38         N  0.09315616  0.49878254  0.03761809     0.00900
N39         N  0.03518247  0.06185079  0.28519178     0.00600
C40         C  0.01918528  0.08510176  0.23548438     0.42300
N41         N  0.47761833  0.47758788  0.04135552    -0.25700
C42         C  0.06801695  0.43316543  0.25342932    -0.06900
N43         N  0.02148374  0.42424810  0.06887981    -0.47100
N44         N  0.04292185  0.07886129  0.25565750    -0.47300
C45         C  0.04460173  0.41813516  0.23491576     0.42000
N46         N  0.09250496  0.49837857  0.28374269     0.00900
N47         N  0.47667911  0.47692588  0.28696416    -0.26000
N48         N  0.05681402  0.44676191  0.03935519    -0.26500
N49         N  0.47131200  0.00439328  0.28706241     0.00500
H50         H  0.46276364  0.44238272  0.24901576     0.06400
H51         H  0.47355902  0.06983204  0.24725833     0.06500
N52         N  0.08704652  0.02582873  0.28342393    -0.26500
N53         N  0.00853980  0.05697335  0.04002262    -0.26100
N54         N  0.02887738  0.44113182  0.28571431     0.00900
C55         C  0.11703993  0.51476354  0.08695273     0.42300
C56         C  0.46431010  0.46598234  0.07295870    -0.07400
N57         N  0.00771883  0.05647030  0.28554860    -0.26100
H58         H  0.47510388  0.07035328  0.08035653     0.06400
N59         N  0.11043180  0.49099701  0.06654774    -0.47400
H60         H  0.46460821  0.44384365  0.08104151     0.06400
C61         C  0.44714144  0.98788254  0.23809885     0.42100
C62         C  0.06857940  0.43300914  0.07019604    -0.06900
Co63       Co  0.50279859  0.45875872  0.33004598     0.73800
N64         N  0.45549073  0.01311847  0.07107352    -0.47100
C65         C  0.11540230  0.01400193  0.23279472     0.42400
N66         N  0.02094706  0.42413070  0.25618287    -0.47100
Co67       Co  0.48942321  0.03110515  0.99674694     0.73900
C68         C  0.99580777  0.07006622  0.25474268    -0.07400
C69         C  0.10185307  0.03816614  0.06856338    -0.07000
N70         N  0.05631443  0.44660232  0.28489916    -0.26500
N71         N  0.04422369  0.07941460  0.06824684    -0.47200
H72         H  0.10004646  0.05968608  0.24379766     0.06400
C73         C  0.46255561  0.46475965  0.25669338    -0.07400
Cl74       Cl  0.03230766  0.00168653  0.32906658    -0.50400
C75         C  0.44952965  0.98955005  0.09219210     0.42200
H76         H  0.09016098  0.43363003  0.24492245     0.06400
N77         N  0.45387111  0.01187361  0.25808911    -0.47100
C78         C  0.03620699  0.32753258  0.16282320     0.00900
C79         C  0.05222939  0.31007957  0.13646067     0.03700
C80         C  0.04941607  0.28033538  0.13784456    -0.12300
C81         C  0.03139201  0.26754948  0.16625556     0.23000
C82         C  0.01553910  0.28467886  0.19274869    -0.12900
C83         C  0.01747263  0.31450090  0.19062697     0.04400
C84         C  0.02865264  0.23604438  0.16713834     0.26800
C85         C  0.01016485  0.22226309  0.14052758    -0.13600
C86         C  0.00862770  0.19242206  0.13941167     0.04900
C87         C  0.02617863  0.17594990  0.16437738    -0.09600
C88         C  0.04505188  0.18992843  0.19064836     0.05800
C89         C  0.04578885  0.21981489  0.19258606    -0.13900
Br90       Br  0.99094961  0.26705724  0.23177764    -0.06000
Br91       Br  0.07943165  0.32619650  0.09957043    -0.00400
Br92       Br  0.48148776  0.17461042  0.10441544     0.00100
Br93       Br  0.07055229  0.23875011  0.22979322    -0.04300
Br94       Br  0.99278526  0.33707421  0.22436199     0.00200
Br95       Br  0.07027087  0.25670040  0.10061770    -0.03600
Br96       Br  0.48709159  0.24459187  0.10521682    -0.04500
Br97       Br  0.07173237  0.16848525  0.22176615    -0.00500
C98         C  0.20634117  0.50603318  0.16057936     0.00900
C99         C  0.22400144  0.02575867  0.14062611     0.03700
C100        C  0.25370298  0.02295218  0.14203959    -0.12300
C101        C  0.26604623  0.50047713  0.16329926     0.23000
C102        C  0.24852470  0.48087556  0.18338530    -0.12900
C103        C  0.21880475  0.48336615  0.18155014     0.04400
C104        C  0.29747838  0.49737563  0.16398229     0.26800
C105        C  0.31145167  0.48138985  0.13416470    -0.13600
C106        C  0.34125269  0.47887189  0.13420498     0.04900
C107        C  0.35756791  0.49340001  0.16340231    -0.09600
C108        C  0.34326010  0.01026176  0.19242348     0.05800
C109        C  0.31342464  0.01137785  0.19343049    -0.13900
Br110      Br  0.26542819  0.45083869  0.21391248    -0.06000
Br111      Br  0.20780209  0.05734301  0.11239676    -0.00400
Br112      Br  0.35891438  0.45452320  0.09466736     0.00100
Br113      Br  0.29408097  0.03228006  0.23519590    -0.04300
Br114      Br  0.19525771  0.45454193  0.20563251     0.00200
Br115      Br  0.27778186  0.05020431  0.11545962    -0.03600
Br116      Br  0.28937671  0.46306923  0.09306560    -0.04500
Br117      Br  0.36401538  0.03432791  0.22880936    -0.00500
C118        C  0.17501667  0.50940610  0.49359339     0.79800
N119        N  0.16092139  0.51106551  0.45835007    -0.78500
C120        C  0.13241023  0.01490615  0.45812005     0.82200
N121        N  0.11782667  0.01659435  0.49319791    -0.78500
C122        C  0.13160050  0.01433131  0.52849142     0.82300
N123        N  0.16014565  0.51067805  0.52863091    -0.80200
C124        C  0.38923346  0.49103098  0.49722952     0.79800
N125        N  0.40452543  0.49152079  0.46252060    -0.78500
C126        C  0.43320267  0.48909345  0.46299676     0.82200
N127        N  0.44686388  0.48703079  0.49839689    -0.78500
C128        C  0.43198480  0.48725228  0.53327014     0.82300
N129        N  0.40325966  0.48900441  0.53258050    -0.80200
C130        C  0.02426228  0.14436677  0.49703344     0.79800
N131        N  0.02419224  0.12990118  0.46167934    -0.78500
C132        C  0.02082438  0.10127988  0.46108644     0.82200
N133        N  0.01815564  0.08691343  0.49596047    -0.78500
C134        C  0.01893556  0.10102692  0.53136988     0.82300
N135        N  0.02193821  0.12967665  0.53185213    -0.80200
C136        C  0.03962391  0.35906655  0.49560325     0.79800
N137        N  0.04088967  0.37352519  0.46042307    -0.78500
C138        C  0.04509561  0.40207713  0.46024822     0.82200
N139        N  0.04708016  0.41641157  0.49537871    -0.78500
C140        C  0.04501765  0.40232591  0.53054737     0.82300
N141        N  0.04150771  0.37377215  0.53057455    -0.80200
C142        C  0.04510560  0.41780963  0.42250711     0.42000
N143        N  0.02935293  0.44139462  0.37288179     0.00900
C144        C  0.10039654  0.03747549  0.58521811    -0.07000
H145        H  0.10169324  0.06040510  0.40991502     0.06400
C146        C  0.99712860  0.07065576  0.40490715    -0.07300
Co147      Co  0.07520177  0.47227347  0.66144528     0.74200
N148        N  0.08788400  0.02626709  0.37124815    -0.26500
Co149      Co  0.06186227  0.04457711  0.66136512     0.74100
C150        C  0.02078337  0.08573701  0.42305141     0.42100
N151        N  0.47225733  0.00506537  0.37445917     0.00500
N152        N  0.03600032  0.06233454  0.37229170     0.00600
N153        N  0.10942089  0.49041170  0.58724410    -0.47400
H154        H  0.09075567  0.43316885  0.41115857     0.06400
N155        N  0.09315634  0.49878274  0.37095123     0.00900
N156        N  0.03518214  0.06185099  0.61852509     0.00600
C157        C  0.01918509  0.08510196  0.56881758     0.42300
N158        N  0.47761852  0.47758773  0.37468847    -0.25700
C159        C  0.06801649  0.43316550  0.58676277    -0.06900
N160        N  0.02148406  0.42424839  0.40221292    -0.47100
N161        N  0.04292160  0.07886141  0.58899076    -0.47300
C162        C  0.04460120  0.41813545  0.56824906     0.42000
N163        N  0.09250471  0.49837825  0.61707624     0.00900
N164        N  0.47667871  0.47692575  0.62029763    -0.26000
N165        N  0.05681438  0.44676209  0.37268825    -0.26500
N166        N  0.47131169  0.00439364  0.62039592     0.00500
H167        H  0.46276340  0.44238253  0.58234907     0.06400
H168        H  0.47355882  0.06983239  0.58059162     0.06500
N169        N  0.08704616  0.02582886  0.61675734    -0.26500
N170        N  0.00854037  0.05697346  0.37335590    -0.26100
N171        N  0.02887692  0.44113174  0.61904794     0.00900
C172        C  0.11703980  0.51476361  0.42028624     0.42300
C173        C  0.46431020  0.46598209  0.40629150    -0.07400
N174        N  0.00771849  0.05647059  0.61888193    -0.26100
H175        H  0.47510424  0.07035369  0.41368948     0.06400
N176        N  0.11043186  0.49099715  0.39988098    -0.47400
H177        H  0.46460835  0.44384334  0.41437421     0.06400
C178        C  0.44714129  0.98788314  0.57143222     0.42100
C179        C  0.06857968  0.43300947  0.40352928    -0.06900
Co180      Co  0.50279815  0.45875861  0.66337960     0.73800
N181        N  0.45549115  0.01311882  0.40440685    -0.47100
C182        C  0.11540224  0.01400206  0.56612846     0.42400
N183        N  0.02094655  0.42413084  0.58951629    -0.47100
Co184      Co  0.48942369  0.03110517  0.33008024     0.73900
C185        C  0.99580749  0.07006653  0.58807594    -0.07400
C186        C  0.10185360  0.03816593  0.40189700    -0.07000
N187        N  0.05631397  0.44660220  0.61823280    -0.26500
N188        N  0.04422424  0.07941472  0.40158017    -0.47200
H189        H  0.10004649  0.05968633  0.57713135     0.06400
C190        C  0.46255535  0.46475953  0.59002671    -0.07400
Cl191      Cl  0.03230722  0.00168670  0.66239991    -0.50400
C192        C  0.44953002  0.98955050  0.42552563     0.42200
H193        H  0.09016034  0.43363016  0.57825588     0.06400
N194        N  0.45387087  0.01187412  0.59142267    -0.47100
C195        C  0.03620647  0.32753304  0.49615643     0.00900
C196        C  0.05222903  0.31008000  0.46979415     0.03700
C197        C  0.04941597  0.28033579  0.47117844    -0.12300
C198        C  0.03139187  0.26754992  0.49958945     0.23000
C199        C  0.01553892  0.28467935  0.52608248    -0.12900
C200        C  0.01747222  0.31450138  0.52396037     0.04400
C201        C  0.02865241  0.23604481  0.50047219     0.26800
C202        C  0.01016494  0.22226356  0.47386093    -0.13600
C203        C  0.00862777  0.19242252  0.47274488     0.04900
C204        C  0.02617841  0.17595029  0.49771090    -0.09600
C205        C  0.04505139  0.18992879  0.52398234     0.05800
C206        C  0.04578830  0.21981526  0.52592025    -0.13900
Br207      Br  0.99094995  0.26705780  0.56511215    -0.06000
Br208      Br  0.07943119  0.32619690  0.43290372    -0.00400
Br209      Br  0.48148798  0.17461094  0.43774840     0.00100
Br210      Br  0.07055123  0.23875039  0.56312818    -0.04300
Br211      Br  0.99278466  0.33707470  0.55769514     0.00200
Br212      Br  0.07027139  0.25670072  0.43395240    -0.03600
Br213      Br  0.48709181  0.24459240  0.43855012    -0.04500
Br214      Br  0.07173171  0.16848559  0.55510035    -0.00500
C215        C  0.20634097  0.50603272  0.49391275     0.00900
C216        C  0.22400159  0.02575822  0.47395815     0.03700
C217        C  0.25370314  0.02295188  0.47537132    -0.12300
C218        C  0.26604607  0.50047654  0.49663208     0.23000
C219        C  0.24852459  0.48087522  0.51671870    -0.12900
C220        C  0.21880462  0.48336585  0.51488380     0.04400
C221        C  0.29747823  0.49737506  0.49731507     0.26800
C222        C  0.31145149  0.48138863  0.46749813    -0.13600
C223        C  0.34125250  0.47887055  0.46753855     0.04900
C224        C  0.35756777  0.49339922  0.49673528    -0.09600
C225        C  0.34326069  0.01026504  0.52575519     0.05800
C226        C  0.31342524  0.01138110  0.52676245    -0.13900
Br227      Br  0.26542817  0.45083863  0.54724631    -0.06000
Br228      Br  0.20780205  0.05734124  0.44572608    -0.00400
Br229      Br  0.35891417  0.45452089  0.42800216     0.00100
Br230      Br  0.29408178  0.03228592  0.56852545    -0.04300
Br231      Br  0.19525767  0.45454187  0.53896691     0.00200
Br232      Br  0.27778174  0.05020245  0.44878758    -0.03600
Br233      Br  0.28937647  0.46306735  0.42639967    -0.04500
Br234      Br  0.36401637  0.03433266  0.56213867    -0.00500
C235        C  0.17501669  0.50940625  0.82692688     0.79800
N236        N  0.16092145  0.51106546  0.79168349    -0.78500
C237        C  0.13240999  0.01490673  0.79145304     0.82200
N238        N  0.11782645  0.01659480  0.82653093    -0.78500
C239        C  0.13160031  0.01433182  0.86182440     0.82300
N240        N  0.16014560  0.51067827  0.86196432    -0.80200
C241        C  0.38923338  0.49103121  0.83056339     0.79800
N242        N  0.40452528  0.49152090  0.79585441    -0.78500
C243        C  0.43320253  0.48909366  0.79633053     0.82200
N244        N  0.44686377  0.48703108  0.83173065    -0.78500
C245        C  0.43198472  0.48725265  0.86660394     0.82300
N246        N  0.40325959  0.48900481  0.86591437    -0.80200
C247        C  0.02426163  0.14436668  0.83036680     0.79800
N248        N  0.02419168  0.12990105  0.79501275    -0.78500
C249        C  0.02082391  0.10127976  0.79441994     0.82200
N250        N  0.01815515  0.08691335  0.82929400    -0.78500
C251        C  0.01893497  0.10102690  0.86470336     0.82300
N252        N  0.02193755  0.12967662  0.86518554    -0.80200
C253        C  0.03962393  0.35906625  0.82893667     0.79800
N254        N  0.04088954  0.37352494  0.79375654    -0.78500
C255        C  0.04509536  0.40207689  0.79358174     0.82200
N256        N  0.04707995  0.41641130  0.82871226    -0.78500
C257        C  0.04501761  0.40232560  0.86388090     0.82300
N258        N  0.04150777  0.37377181  0.86390802    -0.80200
C259        C  0.04510524  0.41780944  0.75584067     0.42000
N260        N  0.02935251  0.44139451  0.70621544     0.00900
C261        C  0.10039632  0.03747586  0.91855117    -0.07000
H262        H  0.10169298  0.06040538  0.74324782     0.06400
C263        C  0.99712820  0.07065574  0.73824063    -0.07300
Co264      Co  0.07520178  0.47227347  0.99477862     0.74200
N265        N  0.08788352  0.02626727  0.70458142    -0.26500
Co266      Co  0.06186212  0.04457714  0.99469830     0.74100
C267        C  0.02078298  0.08573689  0.75638497     0.42100
N268        N  0.47225691  0.00506559  0.70779252     0.00500
N269        N  0.03599992  0.06233469  0.70562506     0.00600
N270        N  0.10942078  0.49041168  0.92057734    -0.47400
H271        H  0.09075530  0.43316857  0.74449198     0.06400
N272        N  0.09315612  0.49878247  0.70428479     0.00900
N273        N  0.03518184  0.06185096  0.95185839     0.00600
C274        C  0.01918460  0.08510200  0.90215108     0.42300
N275        N  0.47761813  0.47758771  0.70802205    -0.25700
C276        C  0.06801648  0.43316528  0.92009625    -0.06900
N277        N  0.02148366  0.42424826  0.73554657    -0.47100
N278        N  0.04292118  0.07886149  0.92232413    -0.47300
C279        C  0.04460118  0.41813515  0.90158264     0.42000
N280        N  0.09250465  0.49837825  0.95040953     0.00900
N281        N  0.47667877  0.47692593  0.95363117    -0.26000
N282        N  0.05681398  0.44676193  0.70602185    -0.26500
N283        N  0.47131166  0.00439331  0.95372905     0.00500
H284        H  0.46276333  0.44238272  0.91568259     0.06400
H285        H  0.47355840  0.06983222  0.91392512     0.06500
N286        N  0.08704604  0.02582906  0.95009043    -0.26500
N287        N  0.00853997  0.05697360  0.70668927    -0.26100
N288        N  0.02887689  0.44113172  0.95238131     0.00900
C289        C  0.11703985  0.51476339  0.75361951     0.42300
C290        C  0.46430988  0.46598215  0.73962522    -0.07400
N291        N  0.00771821  0.05647044  0.95221529    -0.26100
H292        H  0.47510416  0.07035359  0.74702296     0.06400
N293        N  0.11043175  0.49099690  0.73321443    -0.47400
H294        H  0.46460805  0.44384346  0.74770804     0.06400
C295        C  0.44714129  0.98788266  0.90476535     0.42100
C296        C  0.06857931  0.43300926  0.73686280    -0.06900
Co297      Co  0.50279823  0.45875869  0.99671302     0.73800
N298        N  0.45549066  0.01311900  0.73774017    -0.47100
C299        C  0.11540209  0.01400245  0.89946144     0.42400
N300        N  0.02094652  0.42413070  0.92284978    -0.47100
Co301      Co  0.48942333  0.03110543  0.66341366     0.73900
C302        C  0.99580711  0.07006641  0.92140942    -0.07400
C303        C  0.10185324  0.03816623  0.73523005    -0.07000
N304        N  0.05631396  0.44660214  0.95156616    -0.26500
N305        N  0.04422385  0.07941474  0.73491366    -0.47200
H306        H  0.10004617  0.05968644  0.91046457     0.06400
C307        C  0.46255532  0.46475979  0.92336030    -0.07400
Cl308      Cl  0.03230725  0.00168662  0.99573302    -0.50400
C309        C  0.44952943  0.98955062  0.75885876     0.42200
H310        H  0.09016028  0.43362984  0.91158944     0.06400
N311        N  0.45387079  0.01187369  0.92475579    -0.47100
C312        C  0.03620626  0.32753275  0.82948973     0.00900
C313        C  0.05222842  0.31007962  0.80312704     0.03700
C314        C  0.04941495  0.28033545  0.80451103    -0.12300
C315        C  0.03139103  0.26754968  0.83292233     0.23000
C316        C  0.01553843  0.28467916  0.85941569    -0.12900
C317        C  0.01747199  0.31450118  0.85729374     0.04400
C318        C  0.02865155  0.23604461  0.83380523     0.26800
C319        C  0.01016382  0.22226331  0.80719438    -0.13600
C320        C  0.00862673  0.19242228  0.80607842     0.04900
C321        C  0.02617767  0.17595014  0.83104414    -0.09600
C322        C  0.04505089  0.18992868  0.85731515     0.05800
C323        C  0.04578777  0.21981513  0.85925295    -0.13900
Br324      Br  0.99094951  0.26705770  0.89844550    -0.06000
Br325      Br  0.07943054  0.32619631  0.76623640    -0.00400
Br326      Br  0.48148677  0.17461057  0.77108235     0.00100
Br327      Br  0.07055115  0.23875036  0.89646019    -0.04300
Br328      Br  0.99278468  0.33707459  0.89102873     0.00200
Br329      Br  0.07026946  0.25670027  0.76728408    -0.03600
Br330      Br  0.48709051  0.24459207  0.77188373    -0.04500
Br331      Br  0.07173151  0.16848553  0.88843272    -0.00500
C332        C  0.20634103  0.50603288  0.82724646     0.00900
C333        C  0.22400148  0.02576041  0.80729490     0.03700
C334        C  0.25370300  0.02295389  0.80870846    -0.12300
C335        C  0.26604613  0.50047671  0.82996627     0.23000
C336        C  0.24852463  0.48087627  0.85005450    -0.12900
C337        C  0.21880467  0.48336681  0.84821929     0.04400
C338        C  0.29747828  0.49737514  0.83064936     0.26800
C339        C  0.31145139  0.48138754  0.80083352    -0.13600
C340        C  0.34125240  0.47886953  0.80087383     0.04900
C341        C  0.35756775  0.49339939  0.83006924    -0.09600
C342        C  0.34325996  0.01026189  0.85909135     0.05800
C343        C  0.31342451  0.01137806  0.86009827    -0.13900
Br344      Br  0.26542818  0.45084099  0.88058471    -0.06000
Br345      Br  0.20780213  0.05734558  0.77906742    -0.00400
Br346      Br  0.35891409  0.45451845  0.76133922     0.00100
Br347      Br  0.29408076  0.03227968  0.90186423    -0.04300
Br348      Br  0.19525779  0.45454360  0.87230441     0.00200
Br349      Br  0.27778199  0.05020705  0.78213080    -0.03600
Br350      Br  0.28937621  0.46306450  0.75973679    -0.04500
Br351      Br  0.36401514  0.03432684  0.89547895    -0.00500
C352        C  0.17501719  0.00940644  0.16025848     0.79800
N353        N  0.16092202  0.01106605  0.12501507    -0.78500
C354        C  0.13240945  0.51490568  0.12478783     0.82200
N355        N  0.11782610  0.51659383  0.15986586    -0.78500
C356        C  0.13160016  0.51433096  0.19515919     0.82300
N357        N  0.16014606  0.01067844  0.19529590    -0.80200
C358        C  0.38923403  0.99102986  0.16389537     0.79800
N359        N  0.40452601  0.99151952  0.12918645    -0.78500
C360        C  0.43320323  0.98909198  0.12966260     0.82200
N361        N  0.44686443  0.98702926  0.16506274    -0.78500
C362        C  0.43198537  0.98725092  0.19993603     0.82300
N363        N  0.40326023  0.98900329  0.19924637    -0.80200
C364        C  0.02426199  0.64436724  0.16370140     0.79800
N365        N  0.02419206  0.62990162  0.12834733    -0.78500
C366        C  0.02082456  0.60128029  0.12775449     0.82200
N367        N  0.01815609  0.58691384  0.16262855    -0.78500
C368        C  0.01893590  0.60102738  0.19803792     0.82300
N369        N  0.02193814  0.62967713  0.19852013    -0.80200
C370        C  0.03962491  0.85906664  0.16226885     0.79800
N371        N  0.04089084  0.87352515  0.12708858    -0.78500
C372        C  0.04509728  0.90207701  0.12691357     0.82200
N373        N  0.04708214  0.91641151  0.16204399    -0.78500
C374        C  0.04501944  0.90232596  0.19721272     0.82300
N375        N  0.04150897  0.87377227  0.19724005    -0.80200
C376        C  0.04510710  0.91780945  0.08917241     0.42000
N377        N  0.02935406  0.94139430  0.03954717     0.00900
C378        C  0.10039663  0.53747534  0.25188613    -0.07000
H379        H  0.10169284  0.56040473  0.07658278     0.06400
C380        C  0.99712849  0.57065649  0.07157516    -0.07300
Co381      Co  0.07520313  0.97227374  0.32811060     0.74200
N382        N  0.08788320  0.52626675  0.03791613    -0.26500
Co383      Co  0.06186233  0.54457709  0.32803304     0.74100
C384        C  0.02078342  0.58573741  0.08971948     0.42100
N385        N  0.47225654  0.50506639  0.04112705     0.00500
N386        N  0.03600009  0.56233484  0.03895972     0.00600
N387        N  0.10942174  0.99041225  0.25390913    -0.47400
H388        H  0.09075684  0.93316934  0.07782382     0.06400
N389        N  0.09315687  0.99878323  0.03761634     0.00900
N390        N  0.03518237  0.56185125  0.28519297     0.00600
C391        C  0.01918542  0.58510248  0.23548564     0.42300
N392        N  0.47761914  0.97758675  0.04135413    -0.25700
C393        C  0.06801809  0.93316580  0.25342804    -0.06900
N394        N  0.02148546  0.92424790  0.06887825    -0.47100
N395        N  0.04292193  0.57886170  0.25565872    -0.47300
C396        C  0.04460294  0.91813558  0.23491433     0.42000
N397        N  0.09250565  0.99837868  0.28374145     0.00900
N398        N  0.47667983  0.97692489  0.28696325    -0.26000
N399        N  0.05681544  0.94676216  0.03935360    -0.26500
N400        N  0.47131152  0.50439432  0.28706342     0.00500
H401        H  0.46276468  0.94238153  0.24901489     0.06400
H402        H  0.47355899  0.56983320  0.24725952     0.06500
N403        N  0.08704613  0.52582868  0.28342530    -0.26500
N404        N  0.00854008  0.55697409  0.04002392    -0.26100
N405        N  0.02887853  0.94113153  0.28571341     0.00900
C406        C  0.11704050  0.01476439  0.08695101     0.42300
C407        C  0.46431102  0.96598096  0.07295722    -0.07400
N408        N  0.00771868  0.55647104  0.28554979    -0.26100
H409        H  0.47510398  0.57035467  0.08035745     0.06400
N410        N  0.11043268  0.99099786  0.06654585    -0.47400
H411        H  0.46460945  0.94384216  0.08103995     0.06400
C412        C  0.44714084  0.48788388  0.23809993     0.42100
C413        C  0.06858098  0.93300968  0.07019461    -0.06900
Co414      Co  0.50279963  0.95875809  0.33004514     0.73800
N415        N  0.45549053  0.51312002  0.07107482    -0.47100
C416        C  0.11540216  0.51400177  0.23279642     0.42400
N417        N  0.02094828  0.92413062  0.25618173    -0.47100
Co418      Co  0.48942315  0.53110604  0.99674822     0.73900
C419        C  0.99580776  0.57006716  0.25474393    -0.07400
C420        C  0.10185291  0.53816549  0.06856490    -0.07000
N421        N  0.05631553  0.94660229  0.28489818    -0.26500
N422        N  0.04422422  0.57941486  0.06824824    -0.47200
H423        H  0.10004674  0.55968595  0.24379953     0.06400
C424        C  0.46255643  0.96475849  0.25669247    -0.07400
Cl425      Cl  0.03230696  0.50168690  0.32906758    -0.50400
C426        C  0.44952915  0.48955172  0.09219347     0.42200
H427        H  0.09016207  0.93363072  0.24492098     0.06400
N428        N  0.45387070  0.51187487  0.25809020    -0.47100
C429        C  0.03620687  0.82753324  0.16282224     0.00900
C430        C  0.05222939  0.81007982  0.13646045     0.03700
C431        C  0.04941575  0.78033569  0.13784492    -0.12300
C432        C  0.03139120  0.76755029  0.16625578     0.23000
C433        C  0.01553817  0.78468010  0.19274821    -0.12900
C434        C  0.01747206  0.81450208  0.19062589     0.04400
C435        C  0.02865158  0.73604525  0.16713921     0.26800
C436        C  0.01016420  0.72226378  0.14052808    -0.13600
C437        C  0.00862707  0.69242274  0.13941254     0.04900
C438        C  0.02617779  0.67595075  0.16437877    -0.09600
C439        C  0.04505060  0.68992949  0.19065020     0.05800
C440        C  0.04578738  0.71981596  0.19258772    -0.13900
Br441      Br  0.99094820  0.76705917  0.23177717    -0.06000
Br442      Br  0.07943233  0.82619610  0.09957064    -0.00400
Br443      Br  0.48148704  0.67461089  0.10441661     0.00100
Br444      Br  0.07055006  0.73875147  0.22979562    -0.04300
Br445      Br  0.99278469  0.83707603  0.22436007     0.00200
Br446      Br  0.07027088  0.75670010  0.10061921    -0.03600
Br447      Br  0.48709123  0.74459235  0.10521663    -0.04500
Br448      Br  0.07173088  0.66848665  0.22176880    -0.00500
C449        C  0.20634148  0.00603285  0.16057813     0.00900
C450        C  0.22400094  0.52575936  0.14062776     0.03700
C451        C  0.25370248  0.52295310  0.14204121    -0.12300
C452        C  0.26604658  0.00047638  0.16329820     0.23000
C453        C  0.24852487  0.98087523  0.18338476    -0.12900
C454        C  0.21880492  0.98336603  0.18154954     0.04400
C455        C  0.29747875  0.99737459  0.16398119     0.26800
C456        C  0.31145187  0.98138828  0.13416397    -0.13600
C457        C  0.34125288  0.97886991  0.13420435     0.04900
C458        C  0.35756832  0.99339837  0.16340110    -0.09600
C459        C  0.34325949  0.51026272  0.19242530     0.05800
C460        C  0.31342404  0.51137865  0.19343205    -0.13900
Br461      Br  0.26542811  0.95083862  0.21391273    -0.06000
Br462      Br  0.20780131  0.55734375  0.11239889    -0.00400
Br463      Br  0.35891428  0.95452023  0.09466774     0.00100
Br464      Br  0.29408002  0.53228040  0.23519763    -0.04300
Br465      Br  0.19525769  0.95454232  0.20563280     0.00200
Br466      Br  0.27778118  0.55020579  0.11546203    -0.03600
Br467      Br  0.28937668  0.96306762  0.09306515    -0.04500
Br468      Br  0.36401442  0.53432801  0.22881273    -0.00500
C469        C  0.17501745  0.00940663  0.49359266     0.79800
N470        N  0.16092234  0.01106592  0.45834914    -0.78500
C471        C  0.13240927  0.51490560  0.45812136     0.82200
N472        N  0.11782590  0.51659364  0.49319939    -0.78500
C473        C  0.13159995  0.51433054  0.52849271     0.82300
N474        N  0.16014619  0.01067879  0.52862998    -0.80200
C475        C  0.38923430  0.99103162  0.49722861     0.79800
N476        N  0.40452632  0.99152084  0.46251972    -0.78500
C477        C  0.43320349  0.98909266  0.46299601     0.82200
N478        N  0.44686455  0.98702965  0.49839622    -0.78500
C479        C  0.43198539  0.98725177  0.53326942     0.82300
N480        N  0.40326032  0.98900492  0.53257968    -0.80200
C481        C  0.02426188  0.64436694  0.49703471     0.79800
N482        N  0.02419186  0.62990133  0.46168065    -0.78500
C483        C  0.02082436  0.60128000  0.46108783     0.82200
N484        N  0.01815595  0.58691355  0.49596190    -0.78500
C485        C  0.01893585  0.60102709  0.53137127     0.82300
N486        N  0.02193810  0.62967685  0.53185346    -0.80200
C487        C  0.03962522  0.85906636  0.49560223     0.79800
N488        N  0.04089116  0.87352496  0.46042204    -0.78500
C489        C  0.04509739  0.90207685  0.46024715     0.82200
N490        N  0.04708197  0.91641132  0.49537763    -0.78500
C491        C  0.04501927  0.90232571  0.53054631     0.82300
N492        N  0.04150908  0.87377197  0.53057351    -0.80200
C493        C  0.04510725  0.91780934  0.42250605     0.42000
N494        N  0.02935428  0.94139429  0.37288087     0.00900
C495        C  0.10039643  0.53747492  0.58521963    -0.07000
H496        H  0.10169262  0.56040500  0.40991656     0.06400
C497        C  0.99712848  0.57065624  0.40490837    -0.07300
Co498      Co  0.07520262  0.97227387  0.66144400     0.74200
N499        N  0.08788329  0.52626693  0.37124942    -0.26500
Co500      Co  0.06186215  0.54457683  0.66136650     0.74100
C501        C  0.02078328  0.58573715  0.42305283     0.42100
N502        N  0.47225664  0.50506623  0.37446007     0.00500
N503        N  0.03600007  0.56233483  0.37229295     0.00600
N504        N  0.10942146  0.99041236  0.58724272    -0.47400
H505        H  0.09075736  0.93316900  0.41115746     0.06400
N506        N  0.09315730  0.99878296  0.37094999     0.00900
N507        N  0.03518223  0.56185100  0.61852638     0.00600
C508        C  0.01918536  0.58510220  0.56881898     0.42300
N509        N  0.47761947  0.97758693  0.37468773    -0.25700
C510        C  0.06801769  0.93316568  0.58676165    -0.06900
N511        N  0.02148562  0.92424793  0.40221194    -0.47100
N512        N  0.04292184  0.57886140  0.58899209    -0.47300
C513        C  0.04460263  0.91813533  0.56824797     0.42000
N514        N  0.09250522  0.99837879  0.61707486     0.00900
N515        N  0.47667951  0.97692524  0.62029658    -0.26000
N516        N  0.05681569  0.94676201  0.37268726    -0.26500
N517        N  0.47131119  0.50439420  0.62039677     0.00500
H518        H  0.46276446  0.94238203  0.58234786     0.06400
H519        H  0.47355881  0.56983304  0.58059292     0.06500
N520        N  0.08704592  0.52582838  0.61675880    -0.26500
N521        N  0.00854007  0.55697398  0.37335708    -0.26100
N522        N  0.02887807  0.94113162  0.61904671     0.00900
C523        C  0.11704094  0.01476409  0.42028472     0.42300
C524        C  0.46431135  0.96598126  0.40629097    -0.07400
N525        N  0.00771853  0.55647085  0.61888318    -0.26100
H526        H  0.47510402  0.57035430  0.41369067     0.06400
N527        N  0.11043306  0.99099756  0.39987958    -0.47400
H528        H  0.46460972  0.94384265  0.41437381     0.06400
C529        C  0.44714078  0.48788377  0.57143295     0.42100
C530        C  0.06858111  0.93300945  0.40352819    -0.06900
Co531      Co  0.50279917  0.95875828  0.66337843     0.73800
N532        N  0.45549047  0.51311972  0.40440775    -0.47100
C533        C  0.11540193  0.51400138  0.56612994     0.42400
N534        N  0.02094790  0.92413054  0.58951515    -0.47100
Co535      Co  0.48942329  0.53110597  0.33008130     0.73900
C536        C  0.99580763  0.57006697  0.58807728    -0.07400
C537        C  0.10185283  0.53816555  0.40189839    -0.07000
N538        N  0.05631508  0.94660236  0.61823157    -0.26500
N539        N  0.04422412  0.57941479  0.40158158    -0.47200
H540        H  0.10004657  0.55968579  0.57713290     0.06400
C541        C  0.46255620  0.96475898  0.59002565    -0.07400
Cl542      Cl  0.03230666  0.50168673  0.66240112    -0.50400
C543        C  0.44952906  0.48955136  0.42552628     0.42200
H544        H  0.09016180  0.93363053  0.57825473     0.06400
N545        N  0.45387057  0.51187476  0.59142328    -0.47100
C546        C  0.03620710  0.82753292  0.49615543     0.00900
C547        C  0.05222894  0.81007950  0.46979275     0.03700
C548        C  0.04941508  0.78033537  0.47117697    -0.12300
C549        C  0.03139122  0.76754993  0.49958865     0.23000
C550        C  0.01553886  0.78467971  0.52608190    -0.12900
C551        C  0.01747272  0.81450169  0.52395961     0.04400
C552        C  0.02865163  0.73604488  0.50047218     0.26800
C553        C  0.01016367  0.72226340  0.47386185    -0.13600
C554        C  0.00862655  0.69242237  0.47274636     0.04900
C555        C  0.02617769  0.67595041  0.49771202    -0.09600
C556        C  0.04505098  0.68992913  0.52398273     0.05800
C557        C  0.04578792  0.71981559  0.52592003    -0.13900
Br558      Br  0.99094981  0.76705871  0.56511196    -0.06000
Br559      Br  0.07943122  0.82619570  0.43290190    -0.00400
Br560      Br  0.48148637  0.67461040  0.43775082     0.00100
Br561      Br  0.07055150  0.73875109  0.56312675    -0.04300
Br562      Br  0.99278565  0.83707551  0.55769443     0.00200
Br563      Br  0.07026891  0.75669982  0.43394972    -0.03600
Br564      Br  0.48709015  0.74459189  0.43855105    -0.04500
Br565      Br  0.07173160  0.66848619  0.55510062    -0.00500
C566        C  0.20634183  0.00603334  0.49391245     0.00900
C567        C  0.22400070  0.52575866  0.47396058     0.03700
C568        C  0.25370225  0.52295229  0.47537366    -0.12300
C569        C  0.26604701  0.00047737  0.49663225     0.23000
C570        C  0.24852557  0.98087723  0.51672122    -0.12900
C571        C  0.21880558  0.98336766  0.51488603     0.04400
C572        C  0.29747919  0.99737587  0.49731512     0.26800
C573        C  0.31145218  0.98138794  0.46749949    -0.13600
C574        C  0.34125321  0.97887013  0.46753936     0.04900
C575        C  0.35756870  0.99340027  0.49673430    -0.09600
C576        C  0.34325941  0.51026251  0.52575765     0.05800
C577        C  0.31342396  0.51137863  0.52676427    -0.13900
Br578      Br  0.26542926  0.95084248  0.54725232    -0.06000
Br579      Br  0.20780104  0.55734297  0.44573152    -0.00400
Br580      Br  0.35891475  0.95451896  0.42800473     0.00100
Br581      Br  0.29408001  0.53228137  0.56852893    -0.04300
Br582      Br  0.19525883  0.95454479  0.53897222     0.00200
Br583      Br  0.27778089  0.55020453  0.44879343    -0.03600
Br584      Br  0.28937679  0.96306409  0.42640372    -0.04500
Br585      Br  0.36401445  0.53432817  0.56214446    -0.00500
C586        C  0.17501721  0.00940741  0.82692557     0.79800
N587        N  0.16092213  0.01106675  0.79168205    -0.78500
C588        C  0.13240930  0.51490542  0.79145467     0.82200
N589        N  0.11782588  0.51659347  0.82653264    -0.78500
C590        C  0.13159988  0.51433056  0.86182601     0.82300
N591        N  0.16014600  0.01067934  0.86196292    -0.80200
C592        C  0.38923391  0.99103069  0.83056217     0.79800
N593        N  0.40452586  0.99152049  0.79585323    -0.78500
C594        C  0.43320306  0.98909267  0.79632927     0.82200
N595        N  0.44686428  0.98702961  0.83172934    -0.78500
C596        C  0.43198525  0.98725117  0.86660262     0.82300
N597        N  0.40326014  0.98900375  0.86591308    -0.80200
C598        C  0.02426140  0.64436697  0.83036782     0.79800
N599        N  0.02419142  0.62990130  0.79501381    -0.78500
C600        C  0.02082411  0.60127995  0.79442111     0.82200
N601        N  0.01815583  0.58691354  0.82929523    -0.78500
C602        C  0.01893566  0.60102714  0.86470455     0.82300
N603        N  0.02193774  0.62967692  0.86518662    -0.80200
C604        C  0.03962483  0.85906636  0.82893540     0.79800
N605        N  0.04089057  0.87352497  0.79375522    -0.78500
C606        C  0.04509696  0.90207684  0.79358031     0.82200
N607        N  0.04708195  0.91641126  0.82871077    -0.78500
C608        C  0.04501945  0.90232563  0.86387945     0.82300
N609        N  0.04150904  0.87377192  0.86390668    -0.80200
C610        C  0.04510672  0.91780937  0.75583924     0.42000
N611        N  0.02935373  0.94139441  0.70621417     0.00900
C612        C  0.10039638  0.53747502  0.91855286    -0.07000
H613        H  0.10169273  0.56040476  0.74324974     0.06400
C614        C  0.99712821  0.57065618  0.73824167    -0.07300
Co615      Co  0.07520278  0.97227398  0.99477695     0.74200
N616        N  0.08788313  0.52626667  0.70458290    -0.26500
Co617      Co  0.06186222  0.54457693  0.99469979     0.74100
C618        C  0.02078309  0.58573703  0.75638617     0.42100
N619        N  0.47225629  0.50506621  0.70779356     0.00500
N620        N  0.03599989  0.56233462  0.70562637     0.00600
N621        N  0.10942144  0.99041270  0.92057565    -0.47400
H622        H  0.09075648  0.93316904  0.74449059     0.06400
N623        N  0.09315677  0.99878313  0.70428341     0.00900
N624        N  0.03518227  0.56185113  0.95185970     0.00600
C625        C  0.01918527  0.58510231  0.90215234     0.42300
N626        N  0.47761900  0.97758714  0.70802097    -0.25700
C627        C  0.06801802  0.93316575  0.92009458    -0.06900
N628        N  0.02148507  0.92424797  0.73554519    -0.47100
N629        N  0.04292181  0.57886151  0.92232534    -0.47300
C630        C  0.04460290  0.91813524  0.90158108     0.42000
N631        N  0.09250521  0.99837902  0.95040785     0.00900
N632        N  0.47667960  0.97692493  0.95362969    -0.26000
N633        N  0.05681513  0.94676215  0.70602060    -0.26500
N634        N  0.47131126  0.50439439  0.95373040     0.00500
H635        H  0.46276468  0.94238142  0.91568096     0.06400
H636        H  0.47355885  0.56983318  0.91392648     0.06500
N637        N  0.08704589  0.52582838  0.95009209    -0.26500
N638        N  0.00853988  0.55697387  0.70669042    -0.26100
N639        N  0.02887833  0.94113156  0.95237977     0.00900
C640        C  0.11704062  0.01476445  0.75361780     0.42300
C641        C  0.46431077  0.96598145  0.73962405    -0.07400
N642        N  0.00771857  0.55647101  0.95221663    -0.26100
H643        H  0.47510393  0.57035435  0.74702381     0.06400
N644        N  0.11043261  0.99099783  0.73321294    -0.47400
H645        H  0.46460908  0.94384265  0.74770683     0.06400
C646        C  0.44714072  0.48788405  0.90476669     0.42100
C647        C  0.06858066  0.93300953  0.73686150    -0.06900
Co648      Co  0.50279938  0.95875808  0.99671149     0.73800
N649        N  0.45549026  0.51311981  0.73774135    -0.47100
C650        C  0.11540182  0.51400136  0.89946318     0.42400
N651        N  0.02094819  0.92413039  0.92284830    -0.47100
Co652      Co  0.48942299  0.53110586  0.66341470     0.73900
C653        C  0.99580759  0.57006710  0.92141078    -0.07400
C654        C  0.10185283  0.53816533  0.73523171    -0.07000
N655        N  0.05631531  0.94660242  0.95156454    -0.26500
N656        N  0.04422396  0.57941456  0.73491502    -0.47200
H657        H  0.10004656  0.55968541  0.91046632     0.06400
C658        C  0.46255632  0.96475865  0.92335882    -0.07400
Cl659      Cl  0.03230673  0.50168681  0.99573452    -0.50400
C660        C  0.44952888  0.48955149  0.75886001     0.42200
H661        H  0.09016175  0.93363065  0.91158773     0.06400
N662        N  0.45387057  0.51187501  0.92475705    -0.47100
C663        C  0.03620665  0.82753294  0.82948863     0.00900
C664        C  0.05222858  0.81007950  0.80312611     0.03700
C665        C  0.04941481  0.78033537  0.80451050    -0.12300
C666        C  0.03139080  0.76754997  0.83292203     0.23000
C667        C  0.01553835  0.78467979  0.85941513    -0.12900
C668        C  0.01747221  0.81450177  0.85729277     0.04400
C669        C  0.02865114  0.73604493  0.83380550     0.26800
C670        C  0.01016322  0.72226350  0.80719505    -0.13600
C671        C  0.00862611  0.69242245  0.80607942     0.04900
C672        C  0.02617723  0.67595045  0.83104506    -0.09600
C673        C  0.04505056  0.68992913  0.85731576     0.05800
C674        C  0.04578742  0.71981558  0.85925329    -0.13900
Br675      Br  0.99094921  0.76705885  0.89844514    -0.06000
Br676      Br  0.07943080  0.82619571  0.76623518    -0.00400
Br677      Br  0.48148587  0.67461053  0.77108403     0.00100
Br678      Br  0.07055086  0.73875099  0.89646027    -0.04300
Br679      Br  0.99278510  0.83707570  0.89102735     0.00200
Br680      Br  0.07026904  0.75669978  0.76728378    -0.03600
Br681      Br  0.48708945  0.74459208  0.77188479    -0.04500
Br682      Br  0.07173143  0.66848616  0.88843317    -0.00500
C683        C  0.20634147  0.00603389  0.82724538     0.00900
C684        C  0.22400083  0.52575804  0.80729280     0.03700
C685        C  0.25370238  0.52295163  0.80870605    -0.12300
C686        C  0.26604650  0.00047726  0.82996546     0.23000
C687        C  0.24852472  0.98087536  0.85005044    -0.12900
C688        C  0.21880479  0.98336631  0.84821527     0.04400
C689        C  0.29747865  0.99737541  0.83064838     0.26800
C690        C  0.31145176  0.98138973  0.80083050    -0.13600
C691        C  0.34125276  0.97887146  0.80087065     0.04900
C692        C  0.35756820  0.99339924  0.83006808    -0.09600
C693        C  0.34325957  0.51026376  0.85909044     0.05800
C694        C  0.31342413  0.51137981  0.86009739    -0.13900
Br695      Br  0.26542783  0.95083750  0.88057609    -0.06000
Br696      Br  0.20780135  0.55734141  0.77906147    -0.00400
Br697      Br  0.35891412  0.95452283  0.76133268     0.00100
Br698      Br  0.29408043  0.53228387  0.90186093    -0.04300
Br699      Br  0.19525736  0.95454189  0.87229640     0.00200
Br700      Br  0.27778110  0.55020267  0.78212349    -0.03600
Br701      Br  0.28937655  0.96306980  0.75973107    -0.04500
Br702      Br  0.36401493  0.53433096  0.89547486    -0.00500
C703        C  0.67501690  0.50940648  0.16025989     0.79800
N704        N  0.66092160  0.51106571  0.12501655    -0.78500
C705        C  0.63240997  0.01490640  0.12478621     0.82200
N706        N  0.61782651  0.01659449  0.15986417    -0.78500
C707        C  0.63160042  0.01433117  0.19515757     0.82300
N708        N  0.66014590  0.51067853  0.19529741    -0.80200
C709        C  0.88923360  0.49103169  0.16389656     0.79800
N710        N  0.90452560  0.49152152  0.12918769    -0.78500
C711        C  0.93320280  0.48909387  0.12966386     0.82200
N712        N  0.94686397  0.48703093  0.16506396    -0.78500
C713        C  0.93198487  0.48725246  0.19993717     0.82300
N714        N  0.90325976  0.48900486  0.19924753    -0.80200
C715        C  0.52426247  0.14436642  0.16370014     0.79800
N716        N  0.52419216  0.12990078  0.12834611    -0.78500
C717        C  0.52082408  0.10127953  0.12775333     0.82200
N718        N  0.51815545  0.08691314  0.16262741    -0.78500
C719        C  0.51893569  0.10102668  0.19803675     0.82300
N720        N  0.52193851  0.12967638  0.19851890    -0.80200
C721        C  0.53962438  0.35906610  0.16227009     0.79800
N722        N  0.54088979  0.37352473  0.12708990    -0.78500
C723        C  0.54509551  0.40207670  0.12691498     0.82200
N724        N  0.54708024  0.41641116  0.16204544    -0.78500
C725        C  0.54501811  0.40232550  0.19721414     0.82300
N726        N  0.54150833  0.37377170  0.19724139    -0.80200
C727        C  0.54510535  0.41780921  0.08917387     0.42000
N728        N  0.52935257  0.44139448  0.03954884     0.00900
C729        C  0.60039670  0.03747542  0.25188449    -0.07000
H730        H  0.60169275  0.06040551  0.07658150     0.06400
C731        C  0.49712820  0.07065546  0.07157411    -0.07300
Co732      Co  0.57520212  0.47227369  0.32811170     0.74200
N733        N  0.58788351  0.02626731  0.03791462    -0.26500
Co734      Co  0.56186270  0.04457694  0.32803182     0.74100
C735        C  0.52078295  0.08573665  0.08971838     0.42100
N736        N  0.97225692  0.00506515  0.04112574     0.00500
N737        N  0.53599979  0.06233452  0.03895837     0.00600
N738        N  0.60942116  0.49041207  0.25391054    -0.47400
H739        H  0.59075551  0.43316841  0.07782524     0.06400
N740        N  0.59315614  0.49878254  0.03761813     0.00900
N741        N  0.53518250  0.06185078  0.28519182     0.00600
C742        C  0.51918532  0.08510178  0.23548445     0.42300
N743        N  0.97761834  0.47758787  0.04135548    -0.25700
C744        C  0.56801691  0.43316542  0.25342935    -0.06900
N745        N  0.52148375  0.42424811  0.06887986    -0.47100
N746        N  0.54292188  0.07886128  0.25565755    -0.47300
C747        C  0.54460172  0.41813515  0.23491580     0.42000
N748        N  0.59250498  0.49837857  0.28374270     0.00900
N749        N  0.97667912  0.47692586  0.28696412    -0.26000
N750        N  0.55681404  0.44676191  0.03935524    -0.26500
N751        N  0.97131198  0.00439328  0.28706239     0.00500
H752        H  0.96276369  0.44238264  0.24901566     0.06400
H753        H  0.97355910  0.06983202  0.24725832     0.06500
N754        N  0.58704654  0.02582870  0.28342396    -0.26500
N755        N  0.50853985  0.05697336  0.04002269    -0.26100
N756        N  0.52887737  0.44113184  0.28571433     0.00900
C757        C  0.61703991  0.51476354  0.08695277     0.42300
C758        C  0.96431011  0.46598232  0.07295865    -0.07400
N759        N  0.50771886  0.05647029  0.28554863    -0.26100
H760        H  0.97510373  0.07035322  0.08035651     0.06400
N761        N  0.61043177  0.49099701  0.06654779    -0.47400
H762        H  0.96460822  0.44384362  0.08104145     0.06400
C763        C  0.94714142  0.98788252  0.23809885     0.42100
C764        C  0.56857936  0.43300913  0.07019606    -0.06900
Co765      Co  0.00279859  0.45875870  0.33004596     0.73800
N766        N  0.95549072  0.01311843  0.07107350    -0.47100
C767        C  0.61540231  0.01400188  0.23279472     0.42400
N768        N  0.52094705  0.42413071  0.25618290    -0.47100
Co769      Co  0.98942318  0.03110513  0.99674688     0.73900
C770        C  0.49580783  0.07006623  0.25474274    -0.07400
C771        C  0.60185313  0.03816611  0.06856340    -0.07000
N772        N  0.55631442  0.44660233  0.28489917    -0.26500
N773        N  0.54422376  0.07941457  0.06824693    -0.47200
H774        H  0.60004653  0.05968577  0.24379780     0.06400
C775        C  0.96255564  0.46475965  0.25669333    -0.07400
Cl776      Cl  0.53230767  0.00168652  0.32906660    -0.50400
C777        C  0.94952967  0.98955000  0.09219210     0.42200
H778        H  0.59016105  0.43363000  0.24492244     0.06400
N779        N  0.95387107  0.01187360  0.25808911    -0.47100
C780        C  0.53620696  0.32753257  0.16282322     0.00900
C781        C  0.55222942  0.31007958  0.13646075     0.03700
C782        C  0.54941612  0.28033539  0.13784461    -0.12300
C783        C  0.53139202  0.26754947  0.16625556     0.23000
C784        C  0.51553905  0.28467884  0.19274864    -0.12900
C785        C  0.51747257  0.31450087  0.19062694     0.04400
C786        C  0.52865267  0.23604438  0.16713832     0.26800
C787        C  0.51016496  0.22226308  0.14052745    -0.13600
C788        C  0.50862781  0.19242206  0.13941155     0.04900
C789        C  0.52617865  0.17594990  0.16437741    -0.09600
C790        C  0.54505184  0.18992844  0.19064846     0.05800
C791        C  0.54578881  0.21981490  0.19258613    -0.13900
Br792      Br  0.49094953  0.26705717  0.23177752    -0.06000
Br793      Br  0.57943178  0.32619653  0.09957068    -0.00400
Br794      Br  0.98148752  0.17461042  0.10441577     0.00100
Br795      Br  0.57055215  0.23875014  0.22979341    -0.04300
Br796      Br  0.49278515  0.33707416  0.22436192     0.00200
Br797      Br  0.57027098  0.25670043  0.10061779    -0.03600
Br798      Br  0.98709135  0.24459187  0.10521713    -0.04500
Br799      Br  0.57173226  0.16848528  0.22176639    -0.00500
C800        C  0.70634118  0.50603313  0.16057934     0.00900
C801        C  0.72400146  0.02575870  0.14062618     0.03700
C802        C  0.75370299  0.02295222  0.14203968    -0.12300
C803        C  0.76604625  0.50047713  0.16329923     0.23000
C804        C  0.74852475  0.48087556  0.18338530    -0.12900
C805        C  0.71880479  0.48336613  0.18155014     0.04400
C806        C  0.79747840  0.49737564  0.16398224     0.26800
C807        C  0.81145169  0.48138984  0.13416466    -0.13600
C808        C  0.84125270  0.47887186  0.13420494     0.04900
C809        C  0.85756793  0.49339999  0.16340226    -0.09600
C810        C  0.84326008  0.01026174  0.19242351     0.05800
C811        C  0.81342462  0.01137781  0.19343052    -0.13900
Br812      Br  0.76542827  0.45083871  0.21391247    -0.06000
Br813      Br  0.70780211  0.05734302  0.11239678    -0.00400
Br814      Br  0.85891438  0.45452317  0.09466733     0.00100
Br815      Br  0.79408090  0.03227990  0.23519602    -0.04300
Br816      Br  0.69525778  0.45454190  0.20563254     0.00200
Br817      Br  0.77778188  0.05020446  0.11545994    -0.03600
Br818      Br  0.78937672  0.46306922  0.09306557    -0.04500
Br819      Br  0.86401531  0.03432782  0.22880953    -0.00500
C820        C  0.67501669  0.50940613  0.49359343     0.79800
N821        N  0.66092140  0.51106551  0.45835011    -0.78500
C822        C  0.63241025  0.01490611  0.45812006     0.82200
N823        N  0.61782668  0.01659433  0.49319792    -0.78500
C824        C  0.63160050  0.01433128  0.52849143     0.82300
N825        N  0.66014567  0.51067808  0.52863095    -0.80200
C826        C  0.88923347  0.49103095  0.49722948     0.79800
N827        N  0.90452544  0.49152073  0.46252056    -0.78500
C828        C  0.93320268  0.48909342  0.46299673     0.82200
N829        N  0.94686389  0.48703079  0.49839687    -0.78500
C830        C  0.93198480  0.48725230  0.53327012     0.82300
N831        N  0.90325966  0.48900442  0.53258046    -0.80200
C832        C  0.52426233  0.14436677  0.49703347     0.79800
N833        N  0.52419232  0.12990117  0.46167938    -0.78500
C834        C  0.52082443  0.10127987  0.46108648     0.82200
N835        N  0.51815564  0.08691343  0.49596051    -0.78500
C836        C  0.51893553  0.10102693  0.53136992     0.82300
N837        N  0.52193820  0.12967665  0.53185217    -0.80200
C838        C  0.53962391  0.35906655  0.49560327     0.79800
N839        N  0.54088964  0.37352518  0.46042309    -0.78500
C840        C  0.54509559  0.40207712  0.46024823     0.82200
N841        N  0.54708015  0.41641157  0.49537873    -0.78500
C842        C  0.54501765  0.40232590  0.53054738     0.82300
N843        N  0.54150772  0.37377214  0.53057456    -0.80200
C844        C  0.54510558  0.41780962  0.42250711     0.42000
N845        N  0.52935293  0.44139463  0.37288180     0.00900
C846        C  0.60039651  0.03747551  0.58521807    -0.07000
H847        H  0.60169325  0.06040500  0.40991503     0.06400
C848        C  0.49712871  0.07065575  0.40490716    -0.07300
Co849      Co  0.57520174  0.47227347  0.66144531     0.74200
N850        N  0.58788401  0.02626707  0.37124817    -0.26500
Co851      Co  0.56186229  0.04457709  0.66136513     0.74100
C852        C  0.52078341  0.08573699  0.42305145     0.42100
N853        N  0.97225732  0.00506537  0.37445914     0.00500
N854        N  0.53600035  0.06233453  0.37229173     0.00600
N855        N  0.60942087  0.49041170  0.58724412    -0.47400
H856        H  0.59075553  0.43316882  0.41115853     0.06400
N857        N  0.59315637  0.49878273  0.37095125     0.00900
N858        N  0.53518215  0.06185097  0.61852511     0.00600
C859        C  0.51918506  0.08510196  0.56881762     0.42300
N860        N  0.97761852  0.47758771  0.37468843    -0.25700
C861        C  0.56801652  0.43316551  0.58676277    -0.06900
N862        N  0.52148405  0.42424839  0.40221292    -0.47100
N863        N  0.54292159  0.07886141  0.58899078    -0.47300
C864        C  0.54460119  0.41813545  0.56824908     0.42000
N865        N  0.59250469  0.49837825  0.61707626     0.00900
N866        N  0.97667871  0.47692577  0.62029760    -0.26000
N867        N  0.55681438  0.44676209  0.37268826    -0.26500
N868        N  0.97131168  0.00439364  0.62039588     0.00500
H869        H  0.96276338  0.44238261  0.58234908     0.06400
H870        H  0.97355889  0.06983240  0.58059155     0.06500
N871        N  0.58704616  0.02582881  0.61675735    -0.26500
N872        N  0.50854038  0.05697346  0.37335594    -0.26100
N873        N  0.52887690  0.44113172  0.61904798     0.00900
C874        C  0.61703981  0.51476360  0.42028627     0.42300
C875        C  0.96431018  0.46598205  0.40629144    -0.07400
N876        N  0.50771849  0.05647058  0.61888197    -0.26100
H877        H  0.97510450  0.07035370  0.41368932     0.06400
N878        N  0.61043189  0.49099715  0.39988099    -0.47400
H879        H  0.96460830  0.44384332  0.41437412     0.06400
C880        C  0.94714127  0.98788312  0.57143219     0.42100
C881        C  0.56857972  0.43300946  0.40352930    -0.06900
Co882      Co  0.00279816  0.45875862  0.66337957     0.73800
N883        N  0.95549114  0.01311882  0.40440683    -0.47100
C884        C  0.61540223  0.01400201  0.56612846     0.42400
N885        N  0.52094654  0.42413081  0.58951633    -0.47100
Co886      Co  0.98942367  0.03110517  0.33008021     0.73900
C887        C  0.49580749  0.07006653  0.58807600    -0.07400
C888        C  0.60185361  0.03816592  0.40189704    -0.07000
N889        N  0.55631395  0.44660220  0.61823283    -0.26500
N890        N  0.54422428  0.07941470  0.40158020    -0.47200
H891        H  0.60004645  0.05968602  0.57713140     0.06400
C892        C  0.96255534  0.46475954  0.59002669    -0.07400
Cl893      Cl  0.53230724  0.00168669  0.66239994    -0.50400
C894        C  0.94953002  0.98955050  0.42552560     0.42200
H895        H  0.59016015  0.43363018  0.57825595     0.06400
N896        N  0.95387087  0.01187411  0.59142262    -0.47100
C897        C  0.53620647  0.32753303  0.49615645     0.00900
C898        C  0.55222902  0.31008000  0.46979415     0.03700
C899        C  0.54941596  0.28033579  0.47117843    -0.12300
C900        C  0.53139189  0.26754991  0.49958946     0.23000
C901        C  0.51553895  0.28467934  0.52608252    -0.12900
C902        C  0.51747224  0.31450137  0.52396041     0.04400
C903        C  0.52865244  0.23604480  0.50047220     0.26800
C904        C  0.51016493  0.22226355  0.47386102    -0.13600
C905        C  0.50862778  0.19242251  0.47274496     0.04900
C906        C  0.52617846  0.17595028  0.49771093    -0.09600
C907        C  0.54505145  0.18992879  0.52398233     0.05800
C908        C  0.54578838  0.21981526  0.52592020    -0.13900
Br909      Br  0.49095001  0.26705777  0.56511220    -0.06000
Br910      Br  0.57943115  0.32619691  0.43290369    -0.00400
Br911      Br  0.98148800  0.17461098  0.43774825     0.00100
Br912      Br  0.57055142  0.23875041  0.56312799    -0.04300
Br913      Br  0.49278469  0.33707468  0.55769520     0.00200
Br914      Br  0.57027135  0.25670073  0.43395234    -0.03600
Br915      Br  0.98709195  0.24459242  0.43854987    -0.04500
Br916      Br  0.57173173  0.16848558  0.55510042    -0.00500
C917        C  0.70634099  0.50603276  0.49391279     0.00900
C918        C  0.72400158  0.02575823  0.47395830     0.03700
C919        C  0.75370314  0.02295189  0.47537143    -0.12300
C920        C  0.76604609  0.50047655  0.49663204     0.23000
C921        C  0.74852462  0.48087532  0.51671885    -0.12900
C922        C  0.71880465  0.48336596  0.51488398     0.04400
C923        C  0.79747825  0.49737507  0.49731502     0.26800
C924        C  0.81145149  0.48138851  0.46749819    -0.13600
C925        C  0.84125250  0.47887040  0.46753864     0.04900
C926        C  0.85756778  0.49339918  0.49673524    -0.09600
C927        C  0.84326068  0.01026495  0.52575521     0.05800
C928        C  0.81342523  0.01138102  0.52676248    -0.13900
Br929      Br  0.76542822  0.45083884  0.54724665    -0.06000
Br930      Br  0.70780204  0.05734129  0.44572634    -0.00400
Br931      Br  0.85891416  0.45452052  0.42800250     0.00100
Br932      Br  0.79408179  0.03228576  0.56852557    -0.04300
Br933      Br  0.69525772  0.45454204  0.53896727     0.00200
Br934      Br  0.77778172  0.05020245  0.44878766    -0.03600
Br935      Br  0.78937647  0.46306709  0.42639987    -0.04500
Br936      Br  0.86401635  0.03433253  0.56213877    -0.00500
C937        C  0.67501670  0.50940624  0.82692690     0.79800
N938        N  0.66092145  0.51106545  0.79168351    -0.78500
C939        C  0.63240997  0.01490672  0.79145310     0.82200
N940        N  0.61782644  0.01659481  0.82653100    -0.78500
C941        C  0.63160031  0.01433184  0.86182446     0.82300
N942        N  0.66014559  0.51067826  0.86196434    -0.80200
C943        C  0.88923340  0.49103123  0.83056335     0.79800
N944        N  0.90452531  0.49152091  0.79585437    -0.78500
C945        C  0.93320255  0.48909365  0.79633050     0.82200
N946        N  0.94686379  0.48703108  0.83173062    -0.78500
C947        C  0.93198473  0.48725266  0.86660391     0.82300
N948        N  0.90325961  0.48900484  0.86591433    -0.80200
C949        C  0.52426165  0.14436668  0.83036685     0.79800
N950        N  0.52419173  0.12990105  0.79501281    -0.78500
C951        C  0.52082400  0.10127975  0.79442000     0.82200
N952        N  0.51815525  0.08691334  0.82929406    -0.78500
C953        C  0.51893505  0.10102689  0.86470342     0.82300
N954        N  0.52193759  0.12967662  0.86518559    -0.80200
C955        C  0.53962395  0.35906624  0.82893669     0.79800
N956        N  0.54088954  0.37352492  0.79375656    -0.78500
C957        C  0.54509534  0.40207688  0.79358176     0.82200
N958        N  0.54707994  0.41641129  0.82871228    -0.78500
C959        C  0.54501762  0.40232558  0.86388092     0.82300
N960        N  0.54150781  0.37377180  0.86390803    -0.80200
C961        C  0.54510521  0.41780942  0.75584069     0.42000
N962        N  0.52935249  0.44139451  0.70621548     0.00900
C963        C  0.60039633  0.03747586  0.91855125    -0.07000
H964        H  0.60169295  0.06040539  0.74324788     0.06400
C965        C  0.49712827  0.07065572  0.73824071    -0.07300
Co966      Co  0.57520178  0.47227347  0.99477865     0.74200
N967        N  0.58788354  0.02626725  0.70458144    -0.26500
Co968      Co  0.56186215  0.04457712  0.99469838     0.74100
C969        C  0.52078304  0.08573687  0.75638503     0.42100
N970        N  0.97225689  0.00506558  0.70779249     0.00500
N971        N  0.53599996  0.06233469  0.70562508     0.00600
N972        N  0.60942078  0.49041167  0.92057737    -0.47400
H973        H  0.59075517  0.43316855  0.74449196     0.06400
N974        N  0.59315610  0.49878248  0.70428482     0.00900
N975        N  0.53518188  0.06185097  0.95185848     0.00600
C976        C  0.51918466  0.08510201  0.90215115     0.42300
N977        N  0.97761815  0.47758772  0.70802202    -0.25700
C978        C  0.56801646  0.43316526  0.92009631    -0.06900
N979        N  0.52148364  0.42424825  0.73554660    -0.47100
N980        N  0.54292123  0.07886149  0.92232421    -0.47300
C981        C  0.54460120  0.41813513  0.90158266     0.42000
N982        N  0.59250465  0.49837824  0.95040956     0.00900
N983        N  0.97667876  0.47692593  0.95363114    -0.26000
N984        N  0.55681395  0.44676193  0.70602187    -0.26500
N985        N  0.97131164  0.00439327  0.95372902     0.00500
H986        H  0.96276331  0.44238255  0.91568253     0.06400
H987        H  0.97355844  0.06983220  0.91392510     0.06500
N988        N  0.58704605  0.02582905  0.95009050    -0.26500
N989        N  0.50854001  0.05697360  0.70668933    -0.26100
N990        N  0.52887691  0.44113171  0.95238133     0.00900
C991        C  0.61703987  0.51476340  0.75361950     0.42300
C992        C  0.96430992  0.46598215  0.73962519    -0.07400
N993        N  0.50771825  0.05647047  0.95221536    -0.26100
H994        H  0.97510414  0.07035361  0.74702284     0.06400
N995        N  0.61043173  0.49099690  0.73321444    -0.47400
H996        H  0.96460809  0.44384346  0.74770801     0.06400
C997        C  0.94714128  0.98788260  0.90476532     0.42100
C998        C  0.56857932  0.43300925  0.73686283    -0.06900
Co999      Co  0.00279822  0.45875870  0.99671299     0.73800
N1000       N  0.95549065  0.01311897  0.73774015    -0.47100
C1001       C  0.61540210  0.01400245  0.89946151     0.42400
N1002       N  0.52094654  0.42413069  0.92284981    -0.47100
Co1003     Co  0.98942330  0.03110543  0.66341361     0.73900
C1004       C  0.49580718  0.07006644  0.92140950    -0.07400
C1005       C  0.60185323  0.03816621  0.73523009    -0.07000
N1006       N  0.55631398  0.44660212  0.95156620    -0.26500
N1007       N  0.54422391  0.07941473  0.73491368    -0.47200
H1008       H  0.60004618  0.05968641  0.91046467     0.06400
C1009       C  0.96255531  0.46475984  0.92336031    -0.07400
Cl1010     Cl  0.53230726  0.00168661  0.99573307    -0.50400
C1011       C  0.94952944  0.98955058  0.75885873     0.42200
H1012       H  0.59016048  0.43362983  0.91158942     0.06400
N1013       N  0.95387076  0.01187363  0.92475576    -0.47100
C1014       C  0.53620628  0.32753274  0.82948976     0.00900
C1015       C  0.55222846  0.31007961  0.80312710     0.03700
C1016       C  0.54941499  0.28033543  0.80451111    -0.12300
C1017       C  0.53139105  0.26754967  0.83292240     0.23000
C1018       C  0.51553842  0.28467917  0.85941571    -0.12900
C1019       C  0.51747200  0.31450118  0.85729375     0.04400
C1020       C  0.52865157  0.23604460  0.83380531     0.26800
C1021       C  0.51016386  0.22226331  0.80719443    -0.13600
C1022       C  0.50862676  0.19242228  0.80607847     0.04900
C1023       C  0.52617769  0.17595014  0.83104420    -0.09600
C1024       C  0.54505090  0.18992868  0.85731522     0.05800
C1025       C  0.54578777  0.21981513  0.85925305    -0.13900
Br1026     Br  0.49094942  0.26705772  0.89844544    -0.06000
Br1027     Br  0.57943060  0.32619629  0.76623648    -0.00400
Br1028     Br  0.98148670  0.17461057  0.77108237     0.00100
Br1029     Br  0.57055113  0.23875034  0.89646033    -0.04300
Br1030     Br  0.49278471  0.33707461  0.89102875     0.00200
Br1031     Br  0.57026953  0.25670025  0.76728420    -0.03600
Br1032     Br  0.98709044  0.24459207  0.77188373    -0.04500
Br1033     Br  0.57173158  0.16848552  0.88843270    -0.00500
C1034       C  0.70634103  0.50603288  0.82724648     0.00900
C1035       C  0.72400146  0.02576045  0.80729492     0.03700
C1036       C  0.75370298  0.02295394  0.80870846    -0.12300
C1037       C  0.76604614  0.50047674  0.82996625     0.23000
C1038       C  0.74852465  0.48087628  0.85005448    -0.12900
C1039       C  0.71880469  0.48336682  0.84821930     0.04400
C1040       C  0.79747829  0.49737518  0.83064932     0.26800
C1041       C  0.81145141  0.48138758  0.80083348    -0.13600
C1042       C  0.84125242  0.47886957  0.80087380     0.04900
C1043       C  0.85756777  0.49339942  0.83006920    -0.09600
C1044       C  0.84325997  0.01026183  0.85909130     0.05800
C1045       C  0.81342452  0.01137804  0.86009819    -0.13900
Br1046     Br  0.76542822  0.45084101  0.88058468    -0.06000
Br1047     Br  0.70780208  0.05734559  0.77906744    -0.00400
Br1048     Br  0.85891410  0.45451846  0.76133921     0.00100
Br1049     Br  0.79408078  0.03227965  0.90186417    -0.04300
Br1050     Br  0.69525782  0.45454360  0.87230442     0.00200
Br1051     Br  0.77778196  0.05020717  0.78213092    -0.03600
Br1052     Br  0.78937624  0.46306451  0.75973677    -0.04500
Br1053     Br  0.86401516  0.03432670  0.89547899    -0.00500
C1054       C  0.67501721  0.00940643  0.16025852     0.79800
N1055       N  0.66092206  0.01106603  0.12501510    -0.78500
C1056       C  0.63240946  0.51490568  0.12478785     0.82200
N1057       N  0.61782612  0.51659384  0.15986590    -0.78500
C1058       C  0.63160020  0.51433096  0.19515922     0.82300
N1059       N  0.66014608  0.01067842  0.19529593    -0.80200
C1060       C  0.88923402  0.99102990  0.16389535     0.79800
N1061       N  0.90452602  0.99151952  0.12918644    -0.78500
C1062       C  0.93320324  0.98909193  0.12966259     0.82200
N1063       N  0.94686443  0.98702919  0.16506274    -0.78500
C1064       C  0.93198536  0.98725090  0.19993602     0.82300
N1065       N  0.90326022  0.98900332  0.19924636    -0.80200
C1066       C  0.52426197  0.64436724  0.16370140     0.79800
N1067       N  0.52419199  0.62990163  0.12834732    -0.78500
C1068       C  0.52082452  0.60128029  0.12775449     0.82200
N1069       N  0.51815609  0.58691384  0.16262855    -0.78500
C1070       C  0.51893594  0.60102737  0.19803792     0.82300
N1071       N  0.52193817  0.62967713  0.19852012    -0.80200
C1072       C  0.53962493  0.85906663  0.16226888     0.79800
N1073       N  0.54089081  0.87352514  0.12708862    -0.78500
C1074       C  0.54509724  0.90207701  0.12691360     0.82200
N1075       N  0.54708212  0.91641150  0.16204402    -0.78500
C1076       C  0.54501947  0.90232594  0.19721276     0.82300
N1077       N  0.54150903  0.87377225  0.19724008    -0.80200
C1078       C  0.54510706  0.91780944  0.08917244     0.42000
N1079       N  0.52935404  0.94139429  0.03954719     0.00900
C1080       C  0.60039670  0.53747536  0.25188619    -0.07000
H1081       H  0.60169285  0.56040475  0.07658279     0.06400
C1082       C  0.49712852  0.57065649  0.07157513    -0.07300
Co1083     Co  0.57520312  0.97227373  0.32811062     0.74200
N1084       N  0.58788319  0.52626675  0.03791615    -0.26500
Co1085     Co  0.56186235  0.54457709  0.32803307     0.74100
C1086       C  0.52078337  0.58573741  0.08971948     0.42100
N1087       N  0.97225655  0.50506638  0.04112704     0.00500
N1088       N  0.53600006  0.56233484  0.03895973     0.00600
N1089       N  0.60942171  0.99041221  0.25390913    -0.47400
H1090       H  0.59075705  0.93316930  0.07782391     0.06400
N1091       N  0.59315688  0.99878318  0.03761640     0.00900
N1092       N  0.53518240  0.56185125  0.28519299     0.00600
C1093       C  0.51918546  0.58510247  0.23548564     0.42300
N1094       N  0.97761916  0.97758673  0.04135411    -0.25700
C1095       C  0.56801810  0.93316579  0.25342807    -0.06900
N1096       N  0.52148542  0.92424790  0.06887828    -0.47100
N1097       N  0.54292197  0.57886170  0.25565873    -0.47300
C1098       C  0.54460296  0.91813556  0.23491436     0.42000
N1099       N  0.59250565  0.99837864  0.28374146     0.00900
N1100       N  0.97667984  0.97692490  0.28696322    -0.26000
N1101       N  0.55681542  0.94676212  0.03935362    -0.26500
N1102       N  0.97131151  0.50439430  0.28706342     0.00500
H1103       H  0.96276471  0.94238152  0.24901487     0.06400
H1104       H  0.97355909  0.56983319  0.24725956     0.06500
N1105       N  0.58704617  0.52582869  0.28342534    -0.26500
N1106       N  0.50854004  0.55697409  0.04002392    -0.26100
N1107       N  0.52887853  0.94113152  0.28571344     0.00900
C1108       C  0.61704056  0.01476435  0.08695101     0.42300
C1109       C  0.96431106  0.96598091  0.07295723    -0.07400
N1110       N  0.50771871  0.55647105  0.28554980    -0.26100
H1111       H  0.97510429  0.57035468  0.08035738     0.06400
N1112       N  0.61043271  0.99099781  0.06654588    -0.47400
H1113       H  0.96460952  0.94384222  0.08103993     0.06400
C1114       C  0.94714085  0.48788386  0.23809990     0.42100
C1115       C  0.56858089  0.93300964  0.07019461    -0.06900
Co1116     Co  0.00279964  0.95875810  0.33004512     0.73800
N1117       N  0.95549054  0.51312000  0.07107481    -0.47100
C1118       C  0.61540222  0.51400178  0.23279647     0.42400
N1119       N  0.52094829  0.92413060  0.25618175    -0.47100
Co1120     Co  0.98942316  0.53110604  0.99674821     0.73900
C1121       C  0.49580783  0.57006716  0.25474395    -0.07400
C1122       C  0.60185291  0.53816549  0.06856492    -0.07000
N1123       N  0.55631553  0.94660228  0.28489821    -0.26500
N1124       N  0.54422418  0.57941486  0.06824826    -0.47200
H1125       H  0.60004685  0.55968591  0.24379964     0.06400
C1126       C  0.96255644  0.96475849  0.25669245    -0.07400
Cl1127     Cl  0.53230698  0.50168690  0.32906760    -0.50400
C1128       C  0.94952916  0.48955169  0.09219344     0.42200
H1129       H  0.59016204  0.93363072  0.24492104     0.06400
N1130       N  0.95387068  0.51187485  0.25809020    -0.47100
C1131       C  0.53620687  0.82753323  0.16282226     0.00900
C1132       C  0.55222935  0.81007980  0.13646041     0.03700
C1133       C  0.54941571  0.78033567  0.13784489    -0.12300
C1134       C  0.53139121  0.76755027  0.16625580     0.23000
C1135       C  0.51553822  0.78468009  0.19274828    -0.12900
C1136       C  0.51747209  0.81450206  0.19062595     0.04400
C1137       C  0.52865158  0.73604524  0.16713923     0.26800
C1138       C  0.51016414  0.72226378  0.14052817    -0.13600
C1139       C  0.50862699  0.69242275  0.13941263     0.04900
C1140       C  0.52617776  0.67595075  0.16437878    -0.09600
C1141       C  0.54505061  0.68992948  0.19065015     0.05800
C1142       C  0.54578740  0.71981594  0.19258768    -0.13900
Br1143     Br  0.49094834  0.76705913  0.23177735    -0.06000
Br1144     Br  0.57943219  0.82619609  0.09957045    -0.00400
Br1145     Br  0.98148721  0.67461088  0.10441638     0.00100
Br1146     Br  0.57055014  0.73875143  0.22979554    -0.04300
Br1147     Br  0.49278473  0.83707602  0.22436014     0.00200
Br1148     Br  0.57027082  0.75670008  0.10061916    -0.03600
Br1149     Br  0.98709139  0.74459232  0.10521640    -0.04500
Br1150     Br  0.57173094  0.66848662  0.22176865    -0.00500
C1151       C  0.70634151  0.00603285  0.16057817     0.00900
C1152       C  0.72400094  0.52575931  0.14062771     0.03700
C1153       C  0.75370249  0.52295306  0.14204112    -0.12300
C1154       C  0.76604659  0.00047638  0.16329818     0.23000
C1155       C  0.74852489  0.98087518  0.18338468    -0.12900
C1156       C  0.71880494  0.98336599  0.18154950     0.04400
C1157       C  0.79747875  0.99737460  0.16398116     0.26800
C1158       C  0.81145187  0.98138836  0.13416388    -0.13600
C1159       C  0.84125287  0.97886999  0.13420426     0.04900
C1160       C  0.85756831  0.99339841  0.16340107    -0.09600
C1161       C  0.84325952  0.51026273  0.19242522     0.05800
C1162       C  0.81342407  0.51137867  0.19343199    -0.13900
Br1163     Br  0.76542816  0.95083853  0.21391251    -0.06000
Br1164     Br  0.70780128  0.55734372  0.11239890    -0.00400
Br1165     Br  0.85891427  0.95452036  0.09466760     0.00100
Br1166     Br  0.79408008  0.53228041  0.23519760    -0.04300
Br1167     Br  0.69525773  0.95454225  0.20563270     0.00200
Br1168     Br  0.77778116  0.55020567  0.11546173    -0.03600
Br1169     Br  0.78937668  0.96306774  0.09306502    -0.04500
Br1170     Br  0.86401447  0.53432808  0.22881256    -0.00500
C1171       C  0.67501745  0.00940658  0.49359270     0.79800
N1172       N  0.66092236  0.01106586  0.45834918    -0.78500
C1173       C  0.63240928  0.51490559  0.45812139     0.82200
N1174       N  0.61782592  0.51659363  0.49319943    -0.78500
C1175       C  0.63159996  0.51433055  0.52849275     0.82300
N1176       N  0.66014619  0.01067874  0.52863001    -0.80200
C1177       C  0.88923428  0.99103158  0.49722857     0.79800
N1178       N  0.90452631  0.99152081  0.46251969    -0.78500
C1179       C  0.93320348  0.98909265  0.46299598     0.82200
N1180       N  0.94686454  0.98702965  0.49839619    -0.78500
C1181       C  0.93198538  0.98725175  0.53326938     0.82300
N1182       N  0.90326031  0.98900487  0.53257964    -0.80200
C1183       C  0.52426190  0.64436693  0.49703473     0.79800
N1184       N  0.52419190  0.62990131  0.46168067    -0.78500
C1185       C  0.52082436  0.60127999  0.46108786     0.82200
N1186       N  0.51815590  0.58691355  0.49596193    -0.78500
C1187       C  0.51893579  0.60102709  0.53137129     0.82300
N1188       N  0.52193808  0.62967685  0.53185348    -0.80200
C1189       C  0.53962517  0.85906636  0.49560223     0.79800
N1190       N  0.54089115  0.87352496  0.46042204    -0.78500
C1191       C  0.54509743  0.90207685  0.46024716     0.82200
N1192       N  0.54708202  0.91641130  0.49537765    -0.78500
C1193       C  0.54501927  0.90232569  0.53054632     0.82300
N1194       N  0.54150903  0.87377196  0.53057352    -0.80200
C1195       C  0.54510725  0.91780934  0.42250606     0.42000
N1196       N  0.52935427  0.94139429  0.37288089     0.00900
C1197       C  0.60039646  0.53747493  0.58521969    -0.07000
H1198       H  0.60169261  0.56040501  0.40991663     0.06400
C1199       C  0.49712847  0.57065623  0.40490839    -0.07300
Co1200     Co  0.57520264  0.97227385  0.66144403     0.74200
N1201       N  0.58788331  0.52626693  0.37124945    -0.26500
Co1202     Co  0.56186213  0.54457684  0.66136653     0.74100
C1203       C  0.52078329  0.58573714  0.42305287     0.42100
N1204       N  0.97225666  0.50506621  0.37446007     0.00500
N1205       N  0.53600008  0.56233482  0.37229297     0.00600
N1206       N  0.60942147  0.99041232  0.58724275    -0.47400
H1207       H  0.59075701  0.93316900  0.41115735     0.06400
N1208       N  0.59315731  0.99878293  0.37095000     0.00900
N1209       N  0.53518219  0.56185100  0.61852640     0.00600
C1210       C  0.51918529  0.58510220  0.56881901     0.42300
N1211       N  0.97761948  0.97758694  0.37468771    -0.25700
C1212       C  0.56801777  0.93316567  0.58676164    -0.06900
N1213       N  0.52148562  0.92424792  0.40221197    -0.47100
N1214       N  0.54292179  0.57886141  0.58899211    -0.47300
C1215       C  0.54460263  0.91813531  0.56824799     0.42000
N1216       N  0.59250524  0.99837875  0.61707489     0.00900
N1217       N  0.97667949  0.97692524  0.62029656    -0.26000
N1218       N  0.55681567  0.94676201  0.37268727    -0.26500
N1219       N  0.97131121  0.50439422  0.62039674     0.00500
H1220       H  0.96276442  0.94238206  0.58234789     0.06400
H1221       H  0.97355905  0.56983306  0.58059294     0.06500
N1222       N  0.58704592  0.52582839  0.61675883    -0.26500
N1223       N  0.50854008  0.55697398  0.37335710    -0.26100
N1224       N  0.52887807  0.94113160  0.61904674     0.00900
C1225       C  0.61704096  0.01476406  0.42028473     0.42300
C1226       C  0.96431136  0.96598127  0.40629094    -0.07400
N1227       N  0.50771849  0.55647085  0.61888320    -0.26100
H1228       H  0.97510395  0.57035430  0.41369068     0.06400
N1229       N  0.61043307  0.99099753  0.39987958    -0.47400
H1230       H  0.96460973  0.94384265  0.41437379     0.06400
C1231       C  0.94714077  0.48788379  0.57143293     0.42100
C1232       C  0.56858120  0.93300946  0.40352824    -0.06900
Co1233     Co  0.00279917  0.95875828  0.66337840     0.73800
N1234       N  0.95549052  0.51311971  0.40440777    -0.47100
C1235       C  0.61540195  0.51400139  0.56612999     0.42400
N1236       N  0.52094790  0.92413052  0.58951518    -0.47100
Co1237     Co  0.98942328  0.53110596  0.33008130     0.73900
C1238       C  0.49580763  0.57006696  0.58807733    -0.07400
C1239       C  0.60185283  0.53816553  0.40189844    -0.07000
N1240       N  0.55631508  0.94660233  0.61823161    -0.26500
N1241       N  0.54422413  0.57941478  0.40158161    -0.47200
H1242       H  0.60004662  0.55968581  0.57713298     0.06400
C1243       C  0.96255617  0.96475896  0.59002564    -0.07400
Cl1244     Cl  0.53230664  0.50168673  0.66240115    -0.50400
C1245       C  0.94952908  0.48955133  0.42552626     0.42200
H1246       H  0.59016153  0.93363051  0.57825483     0.06400
N1247       N  0.95387058  0.51187479  0.59142326    -0.47100
C1248       C  0.53620706  0.82753292  0.49615542     0.00900
C1249       C  0.55222894  0.81007951  0.46979277     0.03700
C1250       C  0.54941510  0.78033538  0.47117700    -0.12300
C1251       C  0.53139122  0.76754993  0.49958864     0.23000
C1252       C  0.51553882  0.78467970  0.52608185    -0.12900
C1253       C  0.51747266  0.81450168  0.52395957     0.04400
C1254       C  0.52865164  0.73604488  0.50047217     0.26800
C1255       C  0.51016374  0.72226339  0.47386176    -0.13600
C1256       C  0.50862663  0.69242236  0.47274627     0.04900
C1257       C  0.52617771  0.67595041  0.49771203    -0.09600
C1258       C  0.54505094  0.68992913  0.52398283     0.05800
C1259       C  0.54578788  0.71981560  0.52592010    -0.13900
Br1260     Br  0.49094973  0.76705869  0.56511187    -0.06000
Br1261     Br  0.57943127  0.82619572  0.43290200    -0.00400
Br1262     Br  0.98148621  0.67461041  0.43775103     0.00100
Br1263     Br  0.57055143  0.73875111  0.56312684    -0.04300
Br1264     Br  0.49278557  0.83707550  0.55769435     0.00200
Br1265     Br  0.57026900  0.75669984  0.43394981    -0.03600
Br1266     Br  0.98709000  0.74459191  0.43855126    -0.04500
Br1267     Br  0.57173147  0.66848621  0.55510088    -0.00500
C1268       C  0.70634183  0.00603330  0.49391252     0.00900
C1269       C  0.72400072  0.52575862  0.47396045     0.03700
C1270       C  0.75370227  0.52295224  0.47537348    -0.12300
C1271       C  0.76604701  0.00047734  0.49663228     0.23000
C1272       C  0.74852559  0.98087715  0.51672117    -0.12900
C1273       C  0.71880559  0.98336758  0.51488601     0.04400
C1274       C  0.79747919  0.99737584  0.49731511     0.26800
C1275       C  0.81145216  0.98138795  0.46749943    -0.13600
C1276       C  0.84125319  0.97887013  0.46753928     0.04900
C1277       C  0.85756869  0.99340022  0.49673426    -0.09600
C1278       C  0.84325944  0.51026258  0.52575749     0.05800
C1279       C  0.81342399  0.51137872  0.52676413    -0.13900
Br1280     Br  0.76542931  0.95084230  0.54725204    -0.06000
Br1281     Br  0.70780105  0.55734283  0.44573118    -0.00400
Br1282     Br  0.85891471  0.95451902  0.42800455     0.00100
Br1283     Br  0.79408007  0.53228159  0.56852867    -0.04300
Br1284     Br  0.69525886  0.95454464  0.53897205     0.00200
Br1285     Br  0.77778088  0.55020436  0.44879298    -0.03600
Br1286     Br  0.78937676  0.96306417  0.42640361    -0.04500
Br1287     Br  0.86401449  0.53432836  0.56214413    -0.00500
C1288       C  0.67501720  0.00940741  0.82692561     0.79800
N1289       N  0.66092212  0.01106675  0.79168210    -0.78500
C1290       C  0.63240931  0.51490541  0.79145467     0.82200
N1291       N  0.61782588  0.51659346  0.82653265    -0.78500
C1292       C  0.63159988  0.51433054  0.86182602     0.82300
N1293       N  0.66014600  0.01067935  0.86196297    -0.80200
C1294       C  0.88923390  0.99103062  0.83056211     0.79800
N1295       N  0.90452586  0.99152042  0.79585318    -0.78500
C1296       C  0.93320307  0.98909260  0.79632923     0.82200
N1297       N  0.94686428  0.98702953  0.83172930    -0.78500
C1298       C  0.93198523  0.98725109  0.86660258     0.82300
N1299       N  0.90326013  0.98900367  0.86591302    -0.80200
C1300       C  0.52426145  0.64436696  0.83036787     0.79800
N1301       N  0.52419142  0.62990130  0.79501385    -0.78500
C1302       C  0.52082408  0.60127996  0.79442114     0.82200
N1303       N  0.51815581  0.58691354  0.82929526    -0.78500
C1304       C  0.51893568  0.60102714  0.86470458     0.82300
N1305       N  0.52193781  0.62967691  0.86518667    -0.80200
C1306       C  0.53962479  0.85906636  0.82893540     0.79800
N1307       N  0.54089052  0.87352497  0.79375522    -0.78500
C1308       C  0.54509695  0.90207684  0.79358033     0.82200
N1309       N  0.54708198  0.91641124  0.82871079    -0.78500
C1310       C  0.54501948  0.90232561  0.86387947     0.82300
N1311       N  0.54150904  0.87377191  0.86390668    -0.80200
C1312       C  0.54510672  0.91780937  0.75583928     0.42000
N1313       N  0.52935373  0.94139440  0.70621420     0.00900
C1314       C  0.60039636  0.53747499  0.91855286    -0.07000
H1315       H  0.60169277  0.56040478  0.74324972     0.06400
C1316       C  0.49712817  0.57065619  0.73824169    -0.07300
Co1317     Co  0.57520278  0.97227395  0.99477699     0.74200
N1318       N  0.58788312  0.52626668  0.70458293    -0.26500
Co1319     Co  0.56186220  0.54457692  0.99469981     0.74100
C1320       C  0.52078305  0.58573704  0.75638620     0.42100
N1321       N  0.97225632  0.50506621  0.70779353     0.00500
N1322       N  0.53599986  0.56233462  0.70562640     0.00600
N1323       N  0.60942145  0.99041269  0.92057570    -0.47400
H1324       H  0.59075657  0.93316904  0.74449066     0.06400
N1325       N  0.59315679  0.99878311  0.70428343     0.00900
N1326       N  0.53518225  0.56185112  0.95185972     0.00600
C1327       C  0.51918527  0.58510230  0.90215236     0.42300
N1328       N  0.97761900  0.97758713  0.70802093    -0.25700
C1329       C  0.56801797  0.93316574  0.92009463    -0.06900
N1330       N  0.52148507  0.92424797  0.73554522    -0.47100
N1331       N  0.54292181  0.57886149  0.92232537    -0.47300
C1332       C  0.54460293  0.91813523  0.90158110     0.42000
N1333       N  0.59250522  0.99837900  0.95040791     0.00900
N1334       N  0.97667960  0.97692490  0.95362967    -0.26000
N1335       N  0.55681513  0.94676213  0.70602063    -0.26500
N1336       N  0.97131128  0.50439440  0.95373037     0.00500
H1337       H  0.96276471  0.94238158  0.91568099     0.06400
H1338       H  0.97355901  0.56983318  0.91392653     0.06500
N1339       N  0.58704588  0.52582836  0.95009210    -0.26500
N1340       N  0.50853984  0.55697387  0.70669045    -0.26100
N1341       N  0.52887834  0.94113156  0.95237977     0.00900
C1342       C  0.61704059  0.01476444  0.75361787     0.42300
C1343       C  0.96431079  0.96598141  0.73962401    -0.07400
N1344       N  0.50771855  0.55647100  0.95221664    -0.26100
H1345       H  0.97510398  0.57035434  0.74702379     0.06400
N1346       N  0.61043262  0.99099781  0.73321299    -0.47400
H1347       H  0.96460911  0.94384268  0.74770676     0.06400
C1348       C  0.94714074  0.48788406  0.90476666     0.42100
C1349       C  0.56858064  0.93300952  0.73686152    -0.06900
Co1350     Co  0.00279939  0.95875807  0.99671147     0.73800
N1351       N  0.95549028  0.51311981  0.73774132    -0.47100
C1352       C  0.61540181  0.51400134  0.89946319     0.42400
N1353       N  0.52094821  0.92413039  0.92284831    -0.47100
Co1354     Co  0.98942302  0.53110587  0.66341467     0.73900
C1355       C  0.49580762  0.57006709  0.92141080    -0.07400
C1356       C  0.60185285  0.53816534  0.73523171    -0.07000
N1357       N  0.55631532  0.94660241  0.95156455    -0.26500
N1358       N  0.54422391  0.57941457  0.73491505    -0.47200
H1359       H  0.60004652  0.55968541  0.91046628     0.06400
C1360       C  0.96255633  0.96475856  0.92335877    -0.07400
Cl1361     Cl  0.53230672  0.50168681  0.99573454    -0.50400
C1362       C  0.94952891  0.48955149  0.75885998     0.42200
H1363       H  0.59016202  0.93363065  0.91158770     0.06400
N1364       N  0.95387060  0.51187502  0.92475700    -0.47100
C1365       C  0.53620660  0.82753294  0.82948861     0.00900
C1366       C  0.55222849  0.81007950  0.80312603     0.03700
C1367       C  0.54941474  0.78033537  0.80451044    -0.12300
C1368       C  0.53139080  0.76754997  0.83292205     0.23000
C1369       C  0.51553837  0.78467979  0.85941519    -0.12900
C1370       C  0.51747220  0.81450176  0.85729279     0.04400
C1371       C  0.52865116  0.73604493  0.83380555     0.26800
C1372       C  0.51016319  0.72226348  0.80719518    -0.13600
C1373       C  0.50862612  0.69242244  0.80607953     0.04900
C1374       C  0.52617729  0.67595045  0.83104512    -0.09600
C1375       C  0.54505065  0.68992913  0.85731576     0.05800
C1376       C  0.54578751  0.71981559  0.85925326    -0.13900
Br1377     Br  0.49094932  0.76705886  0.89844532    -0.06000
Br1378     Br  0.57943065  0.82619571  0.76623500    -0.00400
Br1379     Br  0.98148589  0.67461055  0.77108386     0.00100
Br1380     Br  0.57055106  0.73875103  0.89646008    -0.04300
Br1381     Br  0.49278511  0.83707570  0.89102741     0.00200
Br1382     Br  0.57026889  0.75669979  0.76728362    -0.03600
Br1383     Br  0.98708960  0.74459210  0.77188451    -0.04500
Br1384     Br  0.57173155  0.66848618  0.88843314    -0.00500
C1385       C  0.70634147  0.00603391  0.82724540     0.00900
C1386       C  0.72400082  0.52575806  0.80729283     0.03700
C1387       C  0.75370237  0.52295167  0.80870607    -0.12300
C1388       C  0.76604650  0.00047728  0.82996539     0.23000
C1389       C  0.74852474  0.98087537  0.85005037    -0.12900
C1390       C  0.71880480  0.98336631  0.84821524     0.04400
C1391       C  0.79747865  0.99737543  0.83064827     0.26800
C1392       C  0.81145175  0.98138976  0.80083037    -0.13600
C1393       C  0.84125275  0.97887146  0.80087053     0.04900
C1394       C  0.85756820  0.99339920  0.83006800    -0.09600
C1395       C  0.84325959  0.51026378  0.85909042     0.05800
C1396       C  0.81342415  0.51137984  0.86009736    -0.13900
Br1397     Br  0.76542788  0.95083753  0.88057602    -0.06000
Br1398     Br  0.70780131  0.55734141  0.77906149    -0.00400
Br1399     Br  0.85891409  0.95452287  0.76133249     0.00100
Br1400     Br  0.79408046  0.53228387  0.90186094    -0.04300
Br1401     Br  0.69525741  0.95454187  0.87229639     0.00200
Br1402     Br  0.77778106  0.55020276  0.78212357    -0.03600
Br1403     Br  0.78937654  0.96306986  0.75973090    -0.04500
Br1404     Br  0.86401495  0.53433096  0.89547486    -0.00500
loop_ 
_geom_bond_atom_site_label_1 
_geom_bond_atom_site_label_2 
_geom_bond_distance 
_geom_bond_site_symmetry_2 
_ccdc_geom_bond_type 
C1            N2   1.361       .  A
C1            N6   1.362       .  A
C1           C98   1.489       .  S
N2          C354   1.359       .  A
C3            N4   1.357       .  A
C3          N353   1.359       .  A
C3          C406   1.464       .  S
N4            C5   1.357       .  A
C5          N357   1.360       .  A
C5           C65   1.468       .  S
N6          C356   1.360       .  A
C7            N8   1.362       .  A
C7           N12   1.364       .  A
C7          C107   1.500       .  S
N8            C9   1.360       .  A
C9           N10   1.357       .  A
C9          C426   1.466       .  S
N10          C11   1.357       .  A
C11          N12   1.360       .  A
C11         C412   1.469       .  S
C13          N14   1.362       .  A
C13          N18   1.361       .  A
C13          C87   1.493       .  S
N14          C15   1.360       .  A
C15          N16   1.357       .  A
C15          C33   1.465       .  S
N16          C17   1.356       .  A
C17          N18   1.359       .  A
C17          C40   1.464       .  S
C19          N20   1.364       .  A
C19          N24   1.360       .  A
C19          C78   1.497       .  S
N20          C21   1.361       .  A
C21          N22   1.357       .  A
C21          C25   1.467       .  S
N22          C23   1.356       .  A
C23          N24   1.357       .  A
C23          C45   1.462       .  S
C25          N43   1.347       .  A
C25          C62   1.462       .  S
N26          N43   1.325       .  A
N26          N48   1.321       .  A
N26        Co999   2.084   1_554  S
C27          N52   1.344       .  A
C27          C65   1.458       .  S
C27          H72   1.084       .  S
H28          C69   1.082       .  S
C29          N53   1.344   1_655  A
C29          C33   1.459   1_655  S
C29         H760   1.079       .  S
Co30         N70   2.086       .  S
Co30         N46   2.093       .  S
Co30        N165   2.102       .  S
Co30        N155   2.082       .  S
Co30       Cl425   2.458       .  S
N31          C69   1.344       .  A
N31         N389   1.321   1_545  A
N31        Co266   2.095   1_554  S
Co32         N52   2.094       .  S
Co32         N39   2.086       .  S
Co32        N148   2.095       .  S
Co32        N152   2.085       .  S
Co32        Cl74   2.457       .  S
C33          N71   1.348       .  A
N34          N64   1.326       .  A
N34         N392   1.321   1_545  A
N34         Co67   2.089   1_554  S
N35          N53   1.321       .  A
N35          N71   1.326       .  A
N35        Co266   2.085   1_554  S
N36         C416   1.349       .  A
N36          N46   1.326       .  A
H37          C62   1.080       .  S
N38          N59   1.325       .  A
N38         N382   1.321       .  A
N38        Co264   2.082   1_554  S
N39          N57   1.322       .  A
N39          N44   1.324       .  A
C40          N44   1.347       .  A
C40          C68   1.459   1_455  S
N41          C56   1.344       .  A
N41         N385   1.321       .  A
N41        Co297   2.096   1_554  S
C42          N70   1.342       .  A
C42          C45   1.454       .  S
C42          H76   1.082       .  S
C45          N66   1.349       .  A
N46         N403   1.321       .  A
N47          C73   1.343       .  A
N47         N400   1.321       .  A
N47         Co63   2.092       .  S
N48          C62   1.346       .  A
N48        Co264   2.102   1_554  S
N49          N77   1.326       .  A
N49         N398   1.321   1_545  A
N49        Co184   2.095       .  S
H50          C73   1.085       .  S
H51         C770   1.082       .  S
N52         N397   1.321   1_545  A
N53        Co769   2.098   1_454  S
N54          N66   1.325       .  A
N54          N70   1.321       .  A
N54        Co765   2.090       .  S
C55          N59   1.347       .  A
C55         C354   1.464       .  S
C55         C420   1.459       .  S
C56         C426   1.458       .  S
C56          H60   1.080       .  S
N57          C68   1.344   1_455  A
N57        Co886   2.095   1_455  S
H58         C731   1.079       .  S
C61          N77   1.351   1_565  A
C61         C362   1.469       .  S
C61         C424   1.457       .  S
Co63        N845   2.084       .  S
Co63        N158   2.096       .  S
Co63        N756   2.090       .  S
Co63      Cl1127   2.457       .  S
N64          C75   1.348   1_545  A
C65         N387   1.349   1_545  A
Co67        N283   2.095       .  S
Co67        N755   2.098   1_556  S
Co67        N993   2.095       .  S
Co67      Cl1010   2.457       .  S
C68         H753   1.082       .  S
C69         C406   1.459       .  S
C73         C412   1.457       .  S
Cl74       Co381   2.458   1_545  S
Cl74      Co1116   2.457   1_545  S
Cl74       Co886   2.457   1_455  S
C75         C360   1.466       .  S
C75         C407   1.458       .  S
C78          C79   1.418       .  A
C78          C83   1.420       .  A
C79          C80   1.410       .  A
C79         Br91   1.932       .  S
C80          C81   1.408       .  A
C80         Br95   1.932       .  S
C81          C84   1.492       .  S
C81          C82   1.408       .  A
C82          C83   1.412       .  A
C82         Br90   1.930   1_455  S
C83         Br94   1.933   1_455  S
C84          C85   1.408       .  A
C84          C89   1.409       .  A
C85          C86   1.410       .  A
C85        Br798   1.931   1_455  S
C86          C87   1.417       .  A
C86        Br794   1.932   1_455  S
C87          C88   1.417       .  A
C88          C89   1.412       .  A
C88         Br97   1.932       .  S
C89         Br93   1.930       .  S
Br92        C788   1.932       .  S
Br96        C787   1.931       .  S
C98         C103   1.414       .  A
C98         C450   1.415       .  A
C99         C100   1.411       .  A
C99         C449   1.415       .  A
C99        Br111   1.930       .  S
C100        C452   1.409       .  A
C100       Br115   1.931       .  S
C101        C104   1.493       .  S
C101        C102   1.409       .  A
C101        C451   1.409       .  A
C102        C103   1.411       .  A
C102       Br110   1.929       .  S
C103       Br114   1.930       .  S
C104        C105   1.408       .  A
C104        C460   1.406       .  A
C105        C106   1.413       .  A
C105       Br116   1.932       .  S
C106        C107   1.422       .  A
C106       Br112   1.932       .  S
C107        C459   1.420       .  A
C108        C109   1.411       .  A
C108        C458   1.420   1_545  A
C108       Br117   1.932       .  S
C109        C455   1.406   1_545  A
C109       Br113   1.930       .  S
C118        N119   1.361       .  A
C118        N123   1.362       .  A
C118        C215   1.489       .  S
N119        C471   1.359       .  A
C120        N470   1.359       .  A
C120        N121   1.357       .  A
C120        C523   1.464       .  S
N121        C122   1.357       .  A
C122        N474   1.360       .  A
C122        C182   1.468       .  S
N123        C473   1.360       .  A
C124        N125   1.362       .  A
C124        N129   1.364       .  A
C124        C224   1.500       .  S
N125        C126   1.360       .  A
C126        N127   1.357       .  A
C126        C543   1.466       .  S
N127        C128   1.357       .  A
C128        N129   1.360       .  A
C128        C529   1.469       .  S
C130        N131   1.362       .  A
C130        N135   1.361       .  A
C130        C204   1.493       .  S
N131        C132   1.360       .  A
C132        N133   1.357       .  A
C132        C150   1.465       .  S
N133        C134   1.356       .  A
C134        N135   1.359       .  A
C134        C157   1.464       .  S
C136        N137   1.364       .  A
C136        N141   1.360       .  A
C136        C195   1.497       .  S
N137        C138   1.361       .  A
C138        N139   1.357       .  A
C138        C142   1.467       .  S
N139        C140   1.356       .  A
C140        N141   1.357       .  A
C140        C162   1.462       .  S
C142        N160   1.347       .  A
C142        C179   1.462       .  S
N143        N160   1.325       .  A
N143        N165   1.321       .  A
N143       Co765   2.084       .  S
C144        N169   1.344       .  A
C144        C182   1.458       .  S
C144        H189   1.084       .  S
H145        C186   1.082       .  S
C146        N170   1.344   1_655  A
C146        C150   1.459   1_655  S
C146        H877   1.079       .  S
Co147       N282   2.102       .  S
Co147       N272   2.082       .  S
Co147       N187   2.086       .  S
Co147       N163   2.093       .  S
Co147      Cl542   2.458       .  S
N148        C186   1.344       .  A
N148        N506   1.321   1_545  A
Co149       N265   2.095       .  S
Co149       N269   2.085       .  S
Co149       N169   2.094       .  S
Co149       N156   2.086       .  S
Co149      Cl191   2.457       .  S
C150        N188   1.348       .  A
N151        N509   1.321   1_545  A
N151        N181   1.326       .  A
N151       Co184   2.089       .  S
N152        N170   1.321       .  A
N152        N188   1.326       .  A
N153        C533   1.349       .  A
N153        N163   1.326       .  A
H154        C179   1.080       .  S
N155        N499   1.321       .  A
N155        N176   1.324       .  A
N156        N174   1.322       .  A
N156        N161   1.324       .  A
C157        N161   1.347       .  A
C157        C185   1.459   1_455  S
N158        C173   1.344       .  A
N158        N502   1.321       .  A
C159        N187   1.342       .  A
C159        C162   1.454       .  S
C159        H193   1.082       .  S
C162        N183   1.349       .  A
N163        N520   1.321       .  A
N164        C190   1.343       .  A
N164        N517   1.321       .  A
N164       Co180   2.092       .  S
N165        C179   1.346       .  A
N166        N515   1.321   1_545  A
N166        N194   1.326       .  A
N166       Co301   2.095       .  S
H167        C190   1.085       .  S
H168        C887   1.082       .  S
N169        N514   1.321   1_545  A
N170       Co886   2.098   1_455  S
N171        N183   1.325       .  A
N171        N187   1.321       .  A
N171       Co882   2.090       .  S
C172        N176   1.347       .  A
C172        C471   1.464       .  S
C172        C537   1.459       .  S
C173        C543   1.458       .  S
C173        H177   1.080       .  S
N174        C185   1.344   1_455  A
N174      Co1003   2.095   1_455  S
H175        C848   1.079       .  S
C178        N194   1.351   1_565  A
C178        C479   1.469       .  S
C178        C541   1.457       .  S
Co180       N962   2.084       .  S
Co180       N275   2.096       .  S
Co180       N873   2.090       .  S
Co180     Cl1244   2.457       .  S
N181        C192   1.348   1_545  A
C182        N504   1.349   1_545  A
Co184       N872   2.098       .  S
Co184       N759   2.095       .  S
Co184      Cl776   2.457       .  S
C185        H870   1.082       .  S
C186        C523   1.459       .  S
C190        C529   1.457       .  S
Cl191      Co498   2.458   1_545  S
Cl191     Co1233   2.457   1_545  S
Cl191     Co1003   2.457   1_455  S
C192        C477   1.466       .  S
C192        C524   1.458       .  S
C195        C196   1.418       .  A
C195        C200   1.420       .  A
C196        C197   1.410       .  A
C196       Br208   1.932       .  S
C197        C198   1.408       .  A
C197       Br212   1.932       .  S
C198        C201   1.492       .  S
C198        C199   1.408       .  A
C199        C200   1.412       .  A
C199       Br207   1.930   1_455  S
C200       Br211   1.933   1_455  S
C201        C202   1.408       .  A
C201        C206   1.409       .  A
C202        C203   1.410       .  A
C202       Br915   1.931   1_455  S
C203        C204   1.417       .  A
C203       Br911   1.932   1_455  S
C204        C205   1.417       .  A
C205        C206   1.412       .  A
C205       Br214   1.932       .  S
C206       Br210   1.930       .  S
Br209       C905   1.932       .  S
Br213       C904   1.931       .  S
C215        C567   1.415       .  A
C215        C220   1.414       .  A
C216        C566   1.415       .  A
C216        C217   1.411       .  A
C216       Br228   1.930       .  S
C217        C569   1.409       .  A
C217       Br232   1.931       .  S
C218        C221   1.493       .  S
C218        C568   1.409       .  A
C218        C219   1.409       .  A
C219        C220   1.411       .  A
C219       Br227   1.929       .  S
C220       Br231   1.930       .  S
C221        C222   1.408       .  A
C221        C577   1.406       .  A
C222        C223   1.413       .  A
C222       Br233   1.932       .  S
C223        C224   1.422       .  A
C223       Br229   1.932       .  S
C224        C576   1.420       .  A
C225        C575   1.420   1_545  A
C225        C226   1.411       .  A
C225       Br234   1.932       .  S
C226        C572   1.406   1_545  A
C226       Br230   1.930       .  S
C235        N236   1.361       .  A
C235        N240   1.362       .  A
C235        C332   1.489       .  S
N236        C588   1.359       .  A
C237        N587   1.359       .  A
C237        N238   1.357       .  A
C237        C640   1.464       .  S
N238        C239   1.357       .  A
C239        N591   1.360       .  A
C239        C299   1.468       .  S
N240        C590   1.360       .  A
C241        N242   1.362       .  A
C241        N246   1.364       .  A
C241        C341   1.500       .  S
N242        C243   1.360       .  A
C243        N244   1.357       .  A
C243        C660   1.466       .  S
N244        C245   1.357       .  A
C245        N246   1.360       .  A
C245        C646   1.469       .  S
C247        N248   1.362       .  A
C247        N252   1.361       .  A
C247        C321   1.493       .  S
N248        C249   1.360       .  A
C249        N250   1.357       .  A
C249        C267   1.465       .  S
N250        C251   1.356       .  A
C251        N252   1.359       .  A
C251        C274   1.464       .  S
C253        N254   1.364       .  A
C253        N258   1.360       .  A
C253        C312   1.497       .  S
N254        C255   1.361       .  A
C255        N256   1.357       .  A
C255        C259   1.467       .  S
N256        C257   1.356       .  A
C257        N258   1.357       .  A
C257        C279   1.462       .  S
C259        N277   1.347       .  A
C259        C296   1.462       .  S
N260        N277   1.325       .  A
N260        N282   1.321       .  A
N260       Co882   2.084       .  S
C261        N286   1.344       .  A
C261        C299   1.458       .  S
C261        H306   1.084       .  S
H262        C303   1.082       .  S
C263        N287   1.344   1_655  A
C263        C267   1.459   1_655  S
C263        H994   1.079       .  S
Co264       N304   2.086       .  S
Co264       N280   2.093       .  S
Co264      Cl659   2.458       .  S
N265        C303   1.344       .  A
N265        N623   1.321   1_545  A
Co266       N286   2.094       .  S
Co266       N273   2.086       .  S
Co266      Cl308   2.457       .  S
C267        N305   1.348       .  A
N268        N626   1.321   1_545  A
N268        N298   1.326       .  A
N268       Co301   2.089       .  S
N269        N287   1.321       .  A
N269        N305   1.326       .  A
N270        C650   1.349       .  A
N270        N280   1.326       .  A
H271        C296   1.080       .  S
N272        N616   1.321       .  A
N272        N293   1.325       .  A
N273        N291   1.322       .  A
N273        N278   1.324       .  A
C274        N278   1.347       .  A
C274        C302   1.459   1_455  S
N275        C290   1.344       .  A
N275        N619   1.321       .  A
C276        N304   1.342       .  A
C276        C279   1.454       .  S
C276        H310   1.082       .  S
C279        N300   1.349       .  A
N280        N637   1.321       .  A
N281        C307   1.343       .  A
N281        N634   1.321       .  A
N281       Co297   2.092       .  S
N282        C296   1.346       .  A
N283        N632   1.321   1_545  A
N283        N311   1.326       .  A
H284        C307   1.085       .  S
H285       C1004   1.082       .  S
N286        N631   1.321   1_545  A
N287      Co1003   2.098   1_455  S
N288        N300   1.325       .  A
N288        N304   1.321       .  A
N288       Co999   2.090       .  S
C289        N293   1.347       .  A
C289        C588   1.464       .  S
C289        C654   1.459       .  S
C290        C660   1.458       .  S
C290        H294   1.080       .  S
N291        C302   1.344   1_455  A
N291       Co769   2.095   1_455  S
H292        C965   1.079       .  S
C295        N311   1.351   1_565  A
C295        C596   1.469       .  S
C295        C658   1.457       .  S
Co297       N728   2.084   1_556  S
Co297       N990   2.090       .  S
Co297     Cl1361   2.457       .  S
N298        C309   1.348   1_545  A
C299        N621   1.349   1_545  A
Co301       N989   2.098       .  S
Co301       N876   2.095       .  S
Co301      Cl893   2.457       .  S
C302        H987   1.082       .  S
C303        C640   1.459       .  S
C307        C646   1.457       .  S
Cl308      Co615   2.458   1_545  S
Cl308     Co1350   2.457   1_545  S
Cl308      Co769   2.457   1_455  S
C309        C594   1.466       .  S
C309        C641   1.458       .  S
C312        C313   1.418       .  A
C312        C317   1.420       .  A
C313        C314   1.410       .  A
C313       Br325   1.932       .  S
C314        C315   1.408       .  A
C314       Br329   1.932       .  S
C315        C318   1.492       .  S
C315        C316   1.408       .  A
C316        C317   1.412       .  A
C316       Br324   1.930   1_455  S
C317       Br328   1.933   1_455  S
C318        C319   1.408       .  A
C318        C323   1.409       .  A
C319        C320   1.410       .  A
C319      Br1032   1.931   1_455  S
C320        C321   1.417       .  A
C320      Br1028   1.932   1_455  S
C321        C322   1.417       .  A
C322        C323   1.412       .  A
C322       Br331   1.932       .  S
C323       Br327   1.930       .  S
Br326      C1022   1.932       .  S
Br330      C1021   1.931       .  S
C332        C684   1.415       .  A
C332        C337   1.414       .  A
C333        C683   1.415       .  A
C333        C334   1.411       .  A
C333       Br345   1.930       .  S
C334        C686   1.409       .  A
C334       Br349   1.931       .  S
C335        C338   1.493       .  S
C335        C685   1.409       .  A
C335        C336   1.409       .  A
C336        C337   1.411       .  A
C336       Br344   1.929       .  S
C337       Br348   1.930       .  S
C338        C339   1.408       .  A
C338        C694   1.406       .  A
C339        C340   1.413       .  A
C339       Br350   1.932       .  S
C340        C341   1.422       .  A
C340       Br346   1.932       .  S
C341        C693   1.420       .  A
C342        C692   1.420   1_545  A
C342        C343   1.411       .  A
C342       Br351   1.932       .  S
C343        C689   1.406   1_545  A
C343       Br347   1.930       .  S
C352        N353   1.361       .  A
C352        N357   1.362       .  A
C352        C449   1.489       .  S
C354        N355   1.357       .  A
N355        C356   1.357       .  A
C356        C416   1.468       .  S
C358        N359   1.362       .  A
C358        N363   1.364       .  A
C358        C458   1.500       .  S
N359        C360   1.360       .  A
C360        N361   1.357       .  A
N361        C362   1.357       .  A
C362        N363   1.360       .  A
C364        N365   1.362       .  A
C364        N369   1.361       .  A
C364        C438   1.493       .  S
N365        C366   1.360       .  A
C366        N367   1.357       .  A
C366        C384   1.465       .  S
N367        C368   1.356       .  A
C368        N369   1.359       .  A
C368        C391   1.464       .  S
C370        N371   1.364       .  A
C370        N375   1.360       .  A
C370        C429   1.497       .  S
N371        C372   1.361       .  A
C372        N373   1.357       .  A
C372        C376   1.467       .  S
N373        C374   1.356       .  A
C374        N375   1.357       .  A
C374        C396   1.462       .  S
C376        N394   1.347       .  A
C376        C413   1.462       .  S
N377        N394   1.325       .  A
N377        N399   1.321       .  A
N377      Co1350   2.084   1_554  S
C378        N403   1.344       .  A
C378        C416   1.458       .  S
C378        H423   1.084       .  S
H379        C420   1.082       .  S
C380        N404   1.344   1_655  A
C380        C384   1.459   1_655  S
C380       H1111   1.079       .  S
Co381       N516   2.102       .  S
Co381       N506   2.082       .  S
Co381       N421   2.086       .  S
Co381       N397   2.093       .  S
N382        C420   1.344       .  A
N382       Co617   2.095   1_554  S
Co383       N499   2.095       .  S
Co383       N503   2.085       .  S
Co383       N403   2.094       .  S
Co383       N390   2.086       .  S
Co383      Cl425   2.457       .  S
C384        N422   1.348       .  A
N385        N415   1.326       .  A
N385       Co418   2.089   1_554  S
N386        N404   1.321       .  A
N386        N422   1.326       .  A
N386       Co617   2.085   1_554  S
N387        N397   1.326       .  A
H388        C413   1.080       .  S
N389        N410   1.324       .  A
N389       Co615   2.082   1_554  S
N390        N408   1.322       .  A
N390        N395   1.324       .  A
C391        N395   1.347       .  A
C391        C419   1.459   1_455  S
N392        C407   1.344       .  A
N392       Co648   2.096   1_554  S
C393        N421   1.342       .  A
C393        C396   1.454       .  S
C393        H427   1.082       .  S
C396        N417   1.349       .  A
N398        C424   1.343       .  A
N398       Co414   2.092       .  S
N399        C413   1.346       .  A
N399       Co615   2.102   1_554  S
N400        N428   1.326       .  A
N400       Co535   2.095       .  S
H401        C424   1.085       .  S
H402       C1121   1.082       .  S
N404      Co1120   2.098   1_454  S
N405        N417   1.325       .  A
N405        N421   1.321       .  A
N405      Co1116   2.090       .  S
C406        N410   1.347   1_545  A
C407        H411   1.080       .  S
N408        C419   1.344   1_455  A
N408      Co1237   2.095   1_455  S
H409       C1082   1.079       .  S
C412        N428   1.351       .  A
Co414      N1196   2.084       .  S
Co414       N509   2.096       .  S
Co414      N1107   2.090       .  S
Co414      Cl776   2.457   1_565  S
N415        C426   1.348       .  A
Co418       N634   2.095       .  S
Co418      N1106   2.098   1_556  S
Co418      N1344   2.095       .  S
Co418     Cl1361   2.457       .  S
C419       H1104   1.082       .  S
Cl425      Co765   2.457       .  S
Cl425     Co1237   2.457   1_455  S
C429        C430   1.418       .  A
C429        C434   1.420       .  A
C430        C431   1.410       .  A
C430       Br442   1.932       .  S
C431        C432   1.408       .  A
C431       Br446   1.932       .  S
C432        C435   1.492       .  S
C432        C433   1.408       .  A
C433        C434   1.412       .  A
C433       Br441   1.930   1_455  S
C434       Br445   1.933   1_455  S
C435        C436   1.408       .  A
C435        C440   1.409       .  A
C436        C437   1.410       .  A
C436      Br1149   1.931   1_455  S
C437        C438   1.417       .  A
C437      Br1145   1.932   1_455  S
C438        C439   1.417       .  A
C439        C440   1.412       .  A
C439       Br448   1.932       .  S
C440       Br444   1.930       .  S
Br443      C1139   1.932       .  S
Br447      C1138   1.931       .  S
C449        C454   1.414   1_545  A
C450        C451   1.411       .  A
C450       Br462   1.930       .  S
C451       Br466   1.931       .  S
C452        C455   1.493   1_545  S
C452        C453   1.409   1_545  A
C453        C454   1.411       .  A
C453       Br461   1.929       .  S
C454       Br465   1.930       .  S
C455        C456   1.408       .  A
C456        C457   1.413       .  A
C456       Br467   1.932       .  S
C457        C458   1.422       .  A
C457       Br463   1.932       .  S
C459        C460   1.411       .  A
C459       Br468   1.932       .  S
C460       Br464   1.930       .  S
C469        N470   1.361       .  A
C469        N474   1.362       .  A
C469        C566   1.489       .  S
C471        N472   1.357       .  A
N472        C473   1.357       .  A
C473        C533   1.468       .  S
C475        N476   1.362       .  A
C475        N480   1.364       .  A
C475        C575   1.500       .  S
N476        C477   1.360       .  A
C477        N478   1.357       .  A
N478        C479   1.357       .  A
C479        N480   1.360       .  A
C481        N482   1.362       .  A
C481        N486   1.361       .  A
C481        C555   1.493       .  S
N482        C483   1.360       .  A
C483        N484   1.357       .  A
C483        C501   1.465       .  S
N484        C485   1.356       .  A
C485        N486   1.359       .  A
C485        C508   1.464       .  S
C487        N488   1.364       .  A
C487        N492   1.360       .  A
C487        C546   1.497       .  S
N488        C489   1.361       .  A
C489        N490   1.357       .  A
C489        C493   1.467       .  S
N490        C491   1.356       .  A
C491        N492   1.357       .  A
C491        C513   1.462       .  S
C493        N511   1.347       .  A
C493        C530   1.462       .  S
N494        N511   1.325       .  A
N494        N516   1.321       .  A
N494      Co1116   2.084       .  S
C495        N520   1.344       .  A
C495        C533   1.458       .  S
C495        H540   1.084       .  S
H496        C537   1.082       .  S
C497        N521   1.344   1_655  A
C497        C501   1.459   1_655  S
C497       H1228   1.079       .  S
Co498       N633   2.102       .  S
Co498       N623   2.082       .  S
Co498       N538   2.086       .  S
Co498       N514   2.093       .  S
N499        C537   1.344       .  A
Co500       N616   2.095       .  S
Co500       N620   2.085       .  S
Co500       N520   2.094       .  S
Co500       N507   2.086       .  S
Co500      Cl542   2.457       .  S
C501        N539   1.348       .  A
N502        N532   1.326       .  A
N502       Co535   2.089       .  S
N503        N521   1.321       .  A
N503        N539   1.326       .  A
N504        N514   1.326       .  A
H505        C530   1.080       .  S
N506        N527   1.325       .  A
N507        N525   1.322       .  A
N507        N512   1.324       .  A
C508        N512   1.347       .  A
C508        C536   1.459   1_455  S
N509        C524   1.344       .  A
C510        N538   1.342       .  A
C510        C513   1.454       .  S
C510        H544   1.082       .  S
C513        N534   1.349       .  A
N515        C541   1.343       .  A
N515       Co531   2.092       .  S
N516        C530   1.346       .  A
N517        N545   1.326       .  A
N517       Co652   2.095       .  S
H518        C541   1.085       .  S
H519       C1238   1.082       .  S
N521      Co1237   2.098   1_455  S
N522        N534   1.325       .  A
N522        N538   1.321       .  A
N522      Co1233   2.090       .  S
C523        N527   1.347   1_545  A
C524        H528   1.080       .  S
N525        C536   1.344   1_455  A
N525      Co1354   2.095   1_455  S
H526       C1199   1.079       .  S
C529        N545   1.351       .  A
Co531      N1313   2.084       .  S
Co531       N626   2.096       .  S
Co531      N1224   2.090       .  S
Co531      Cl893   2.457   1_565  S
N532        C543   1.348       .  A
Co535      N1223   2.098       .  S
Co535      N1110   2.095       .  S
Co535     Cl1127   2.457       .  S
C536       H1221   1.082       .  S
Cl542      Co882   2.457       .  S
Cl542     Co1354   2.457   1_455  S
C546        C547   1.418       .  A
C546        C551   1.420       .  A
C547        C548   1.410       .  A
C547       Br559   1.932       .  S
C548        C549   1.408       .  A
C548       Br563   1.932       .  S
C549        C552   1.492       .  S
C549        C550   1.408       .  A
C550        C551   1.412       .  A
C550       Br558   1.930   1_455  S
C551       Br562   1.933   1_455  S
C552        C553   1.408       .  A
C552        C557   1.409       .  A
C553        C554   1.410       .  A
C553      Br1266   1.931   1_455  S
C554        C555   1.417       .  A
C554      Br1262   1.932   1_455  S
C555        C556   1.417       .  A
C556        C557   1.412       .  A
C556       Br565   1.932       .  S
C557       Br561   1.930       .  S
Br560      C1256   1.932       .  S
Br564      C1255   1.931       .  S
C566        C571   1.414   1_545  A
C567        C568   1.411       .  A
C567       Br579   1.930       .  S
C568       Br583   1.931       .  S
C569        C572   1.493   1_545  S
C569        C570   1.409   1_545  A
C570        C571   1.411       .  A
C570       Br578   1.929       .  S
C571       Br582   1.930       .  S
C572        C573   1.408       .  A
C573        C574   1.413       .  A
C573       Br584   1.932       .  S
C574        C575   1.422       .  A
C574       Br580   1.932       .  S
C576        C577   1.411       .  A
C576       Br585   1.932       .  S
C577       Br581   1.930       .  S
C586        N587   1.361       .  A
C586        N591   1.362       .  A
C586        C683   1.489       .  S
C588        N589   1.357       .  A
N589        C590   1.357       .  A
C590        C650   1.468       .  S
C592        N593   1.362       .  A
C592        N597   1.364       .  A
C592        C692   1.500       .  S
N593        C594   1.360       .  A
C594        N595   1.357       .  A
N595        C596   1.357       .  A
C596        N597   1.360       .  A
C598        N599   1.362       .  A
C598        N603   1.361       .  A
C598        C672   1.493       .  S
N599        C600   1.360       .  A
C600        N601   1.357       .  A
C600        C618   1.465       .  S
N601        C602   1.356       .  A
C602        N603   1.359       .  A
C602        C625   1.464       .  S
C604        N605   1.364       .  A
C604        N609   1.360       .  A
C604        C663   1.497       .  S
N605        C606   1.361       .  A
C606        N607   1.357       .  A
C606        C610   1.467       .  S
N607        C608   1.356       .  A
C608        N609   1.357       .  A
C608        C630   1.462       .  S
C610        N628   1.347       .  A
C610        C647   1.462       .  S
N611        N628   1.325       .  A
N611        N633   1.321       .  A
N611      Co1233   2.084       .  S
C612        N637   1.344       .  A
C612        C650   1.458       .  S
C612        H657   1.084       .  S
H613        C654   1.082       .  S
C614        N638   1.344   1_655  A
C614        C618   1.459   1_655  S
C614       H1345   1.079       .  S
Co615       N655   2.086       .  S
Co615       N631   2.093       .  S
N616        C654   1.344       .  A
Co617       N637   2.094       .  S
Co617       N624   2.086       .  S
Co617      Cl659   2.457       .  S
C618        N656   1.348       .  A
N619        N649   1.326       .  A
N619       Co652   2.089       .  S
N620        N638   1.321       .  A
N620        N656   1.326       .  A
N621        N631   1.326       .  A
H622        C647   1.080       .  S
N623        N644   1.325       .  A
N624        N642   1.322       .  A
N624        N629   1.324       .  A
C625        N629   1.347       .  A
C625        C653   1.459   1_455  S
N626        C641   1.344       .  A
C627        N655   1.342       .  A
C627        C630   1.454       .  S
C627        H661   1.082       .  S
C630        N651   1.349       .  A
N632        C658   1.343       .  A
N632       Co648   2.092       .  S
N633        C647   1.346       .  A
N634        N662   1.326       .  A
H635        C658   1.085       .  S
H636       C1355   1.082       .  S
N638      Co1354   2.098   1_455  S
N639        N651   1.325       .  A
N639        N655   1.321       .  A
N639      Co1350   2.090       .  S
C640        N644   1.347   1_545  A
C641        H645   1.080       .  S
N642        C653   1.344   1_455  A
N642      Co1120   2.095   1_455  S
H643       C1316   1.079       .  S
C646        N662   1.351       .  A
Co648      N1079   2.084   1_556  S
Co648      N1341   2.090       .  S
Co648     Cl1010   2.457   1_565  S
N649        C660   1.348       .  A
Co652      N1340   2.098       .  S
Co652      N1227   2.095       .  S
Co652     Cl1244   2.457       .  S
C653       H1338   1.082       .  S
Cl659      Co999   2.457       .  S
Cl659     Co1120   2.457   1_455  S
C663        C664   1.418       .  A
C663        C668   1.420       .  A
C664        C665   1.410       .  A
C664       Br676   1.932       .  S
C665        C666   1.408       .  A
C665       Br680   1.932       .  S
C666        C669   1.492       .  S
C666        C667   1.408       .  A
C667        C668   1.412       .  A
C667       Br675   1.930   1_455  S
C668       Br679   1.933   1_455  S
C669        C670   1.408       .  A
C669        C674   1.409       .  A
C670        C671   1.410       .  A
C670      Br1383   1.931   1_455  S
C671        C672   1.417       .  A
C671      Br1379   1.932   1_455  S
C672        C673   1.417       .  A
C673        C674   1.412       .  A
C673       Br682   1.932       .  S
C674       Br678   1.930       .  S
Br677      C1373   1.932       .  S
Br681      C1372   1.931       .  S
C683        C688   1.414   1_545  A
C684        C685   1.411       .  A
C684       Br696   1.930       .  S
C685       Br700   1.931       .  S
C686        C689   1.493   1_545  S
C686        C687   1.409   1_545  A
C687        C688   1.411       .  A
C687       Br695   1.929       .  S
C688       Br699   1.930       .  S
C689        C690   1.408       .  A
C690        C691   1.413       .  A
C690       Br701   1.932       .  S
C691        C692   1.422       .  A
C691       Br697   1.932       .  S
C693        C694   1.411       .  A
C693       Br702   1.932       .  S
C694       Br698   1.930       .  S
C703        N704   1.361       .  A
C703        N708   1.362       .  A
C703        C800   1.489       .  S
N704       C1056   1.359       .  A
C705       N1055   1.359       .  A
C705        N706   1.357       .  A
C705       C1108   1.464       .  S
N706        C707   1.357       .  A
C707       N1059   1.360       .  A
C707        C767   1.468       .  S
N708       C1058   1.360       .  A
C709        N710   1.362       .  A
C709        N714   1.364       .  A
C709        C809   1.500       .  S
N710        C711   1.360       .  A
C711        N712   1.357       .  A
C711       C1128   1.466       .  S
N712        C713   1.357       .  A
C713        N714   1.360       .  A
C713       C1114   1.469       .  S
C715        N716   1.362       .  A
C715        N720   1.361       .  A
C715        C789   1.493       .  S
N716        C717   1.360       .  A
C717        N718   1.357       .  A
C717        C735   1.465       .  S
N718        C719   1.356       .  A
C719        N720   1.359       .  A
C719        C742   1.464       .  S
C721        N722   1.364       .  A
C721        N726   1.360       .  A
C721        C780   1.497       .  S
N722        C723   1.361       .  A
C723        N724   1.357       .  A
C723        C727   1.467       .  S
N724        C725   1.356       .  A
C725        N726   1.357       .  A
C725        C747   1.462       .  S
C727        N745   1.347       .  A
C727        C764   1.462       .  S
N728        N745   1.325       .  A
N728        N750   1.321       .  A
C729        N754   1.344       .  A
C729        C767   1.458       .  S
C729        H774   1.084       .  S
H730        C771   1.082       .  S
C731        N755   1.344       .  A
C731        C735   1.459       .  S
Co732       N867   2.102       .  S
Co732       N857   2.082       .  S
Co732       N772   2.086       .  S
Co732       N748   2.093       .  S
Co732     Cl1127   2.458       .  S
N733        C771   1.344       .  A
N733       N1091   1.321   1_545  A
N733       Co968   2.095   1_554  S
Co734       N850   2.095       .  S
Co734       N854   2.085       .  S
Co734       N754   2.094       .  S
Co734       N741   2.086       .  S
Co734      Cl776   2.457       .  S
C735        N773   1.348       .  A
N736       N1094   1.321   1_545  A
N736        N766   1.326       .  A
N736       Co769   2.089   1_554  S
N737        N755   1.321       .  A
N737        N773   1.326       .  A
N737       Co968   2.085   1_554  S
N738       C1118   1.349       .  A
N738        N748   1.326       .  A
H739        C764   1.080       .  S
N740       N1084   1.321       .  A
N740        N761   1.325       .  A
N740       Co966   2.082   1_554  S
N741        N759   1.322       .  A
N741        N746   1.324       .  A
C742        N746   1.347       .  A
C742        C770   1.459       .  S
N743        C758   1.344       .  A
N743       N1087   1.321       .  A
N743       Co999   2.096   1_654  S
C744        N772   1.342       .  A
C744        C747   1.454       .  S
C744        H778   1.082       .  S
C747        N768   1.349       .  A
N748       N1105   1.321       .  A
N749        C775   1.343       .  A
N749       N1102   1.321       .  A
N749       Co765   2.092   1_655  S
N750        C764   1.346       .  A
N750       Co966   2.102   1_554  S
N751       N1100   1.321   1_545  A
N751        N779   1.326       .  A
N751       Co886   2.095       .  S
H752        C775   1.085       .  S
N754       N1099   1.321   1_545  A
N756        N768   1.325       .  A
N756        N772   1.321       .  A
C757        N761   1.347       .  A
C757       C1056   1.464       .  S
C757       C1122   1.459       .  S
C758       C1128   1.458       .  S
C758        H762   1.080       .  S
N759        C770   1.344       .  A
C763        N779   1.351   1_565  A
C763       C1064   1.469       .  S
C763       C1126   1.457       .  S
Co765       N860   2.096   1_455  S
N766        C777   1.348   1_545  A
C767       N1089   1.349   1_545  A
Co769       N985   2.095       .  S
C771       C1108   1.459       .  S
C775       C1114   1.457       .  S
Cl776     Co1083   2.458   1_545  S
C777       C1062   1.466       .  S
C777       C1109   1.458       .  S
C780        C781   1.418       .  A
C780        C785   1.420       .  A
C781        C782   1.410       .  A
C781       Br793   1.932       .  S
C782        C783   1.408       .  A
C782       Br797   1.932       .  S
C783        C786   1.492       .  S
C783        C784   1.408       .  A
C784        C785   1.412       .  A
C784       Br792   1.930       .  S
C785       Br796   1.933       .  S
C786        C787   1.408       .  A
C786        C791   1.409       .  A
C787        C788   1.410       .  A
C788        C789   1.417       .  A
C789        C790   1.417       .  A
C790        C791   1.412       .  A
C790       Br799   1.932       .  S
C791       Br795   1.930       .  S
C800       C1152   1.415       .  A
C800        C805   1.414       .  A
C801       C1151   1.415       .  A
C801        C802   1.411       .  A
C801       Br813   1.930       .  S
C802       C1154   1.409       .  A
C802       Br817   1.931       .  S
C803        C806   1.493       .  S
C803       C1153   1.409       .  A
C803        C804   1.409       .  A
C804        C805   1.411       .  A
C804       Br812   1.929       .  S
C805       Br816   1.930       .  S
C806        C807   1.408       .  A
C806       C1162   1.406       .  A
C807        C808   1.413       .  A
C807       Br818   1.932       .  S
C808        C809   1.422       .  A
C808       Br814   1.932       .  S
C809       C1161   1.420       .  A
C810       C1160   1.420   1_545  A
C810        C811   1.411       .  A
C810       Br819   1.932       .  S
C811       C1157   1.406   1_545  A
C811       Br815   1.930       .  S
C820        N821   1.361       .  A
C820        N825   1.362       .  A
C820        C917   1.489       .  S
N821       C1173   1.359       .  A
C822       N1172   1.359       .  A
C822        N823   1.357       .  A
C822       C1225   1.464       .  S
N823        C824   1.357       .  A
C824       N1176   1.360       .  A
C824        C884   1.468       .  S
N825       C1175   1.360       .  A
C826        N827   1.362       .  A
C826        N831   1.364       .  A
C826        C926   1.500       .  S
N827        C828   1.360       .  A
C828        N829   1.357       .  A
C828       C1245   1.466       .  S
N829        C830   1.357       .  A
C830        N831   1.360       .  A
C830       C1231   1.469       .  S
C832        N833   1.362       .  A
C832        N837   1.361       .  A
C832        C906   1.493       .  S
N833        C834   1.360       .  A
C834        N835   1.357       .  A
C834        C852   1.465       .  S
N835        C836   1.356       .  A
C836        N837   1.359       .  A
C836        C859   1.464       .  S
C838        N839   1.364       .  A
C838        N843   1.360       .  A
C838        C897   1.497       .  S
N839        C840   1.361       .  A
C840        N841   1.357       .  A
C840        C844   1.467       .  S
N841        C842   1.356       .  A
C842        N843   1.357       .  A
C842        C864   1.462       .  S
C844        N862   1.347       .  A
C844        C881   1.462       .  S
N845        N862   1.325       .  A
N845        N867   1.321       .  A
C846        N871   1.344       .  A
C846        C884   1.458       .  S
C846        H891   1.084       .  S
H847        C888   1.082       .  S
C848        N872   1.344       .  A
C848        C852   1.459       .  S
Co849       N984   2.102       .  S
Co849       N974   2.082       .  S
Co849       N889   2.086       .  S
Co849       N865   2.093       .  S
Co849     Cl1244   2.458       .  S
N850        C888   1.344       .  A
N850       N1208   1.321   1_545  A
Co851       N967   2.095       .  S
Co851       N971   2.085       .  S
Co851       N871   2.094       .  S
Co851       N858   2.086       .  S
Co851      Cl893   2.457       .  S
C852        N890   1.348       .  A
N853       N1211   1.321   1_545  A
N853        N883   1.326       .  A
N853       Co886   2.089       .  S
N854        N872   1.321       .  A
N854        N890   1.326       .  A
N855       C1235   1.349       .  A
N855        N865   1.326       .  A
H856        C881   1.080       .  S
N857       N1201   1.321       .  A
N857        N878   1.324       .  A
N858        N876   1.322       .  A
N858        N863   1.324       .  A
C859        N863   1.347       .  A
C859        C887   1.459       .  S
N860        C875   1.344       .  A
N860       N1204   1.321       .  A
C861        N889   1.342       .  A
C861        C864   1.454       .  S
C861        H895   1.082       .  S
C864        N885   1.349       .  A
N865       N1222   1.321       .  A
N866        C892   1.343       .  A
N866       N1219   1.321       .  A
N866       Co882   2.092   1_655  S
N867        C881   1.346       .  A
N868       N1217   1.321   1_545  A
N868        N896   1.326       .  A
N868      Co1003   2.095       .  S
H869        C892   1.085       .  S
N871       N1216   1.321   1_545  A
N873        N885   1.325       .  A
N873        N889   1.321       .  A
C874        N878   1.347       .  A
C874       C1173   1.464       .  S
C874       C1239   1.459       .  S
C875       C1245   1.458       .  S
C875        H879   1.080       .  S
N876        C887   1.344       .  A
C880        N896   1.351   1_565  A
C880       C1181   1.469       .  S
C880       C1243   1.457       .  S
Co882       N977   2.096   1_455  S
N883        C894   1.348   1_545  A
C884       N1206   1.349   1_545  A
C888       C1225   1.459       .  S
C892       C1231   1.457       .  S
Cl893     Co1200   2.458   1_545  S
C894       C1179   1.466       .  S
C894       C1226   1.458       .  S
C897        C898   1.418       .  A
C897        C902   1.420       .  A
C898        C899   1.410       .  A
C898       Br910   1.932       .  S
C899        C900   1.408       .  A
C899       Br914   1.932       .  S
C900        C903   1.492       .  S
C900        C901   1.408       .  A
C901        C902   1.412       .  A
C901       Br909   1.930       .  S
C902       Br913   1.933       .  S
C903        C904   1.408       .  A
C903        C908   1.409       .  A
C904        C905   1.410       .  A
C905        C906   1.417       .  A
C906        C907   1.417       .  A
C907        C908   1.412       .  A
C907       Br916   1.932       .  S
C908       Br912   1.930       .  S
C917       C1269   1.415       .  A
C917        C922   1.414       .  A
C918       C1268   1.415       .  A
C918        C919   1.411       .  A
C918       Br930   1.930       .  S
C919       C1271   1.409       .  A
C919       Br934   1.931       .  S
C920        C923   1.493       .  S
C920       C1270   1.409       .  A
C920        C921   1.409       .  A
C921        C922   1.411       .  A
C921       Br929   1.929       .  S
C922       Br933   1.930       .  S
C923        C924   1.408       .  A
C923       C1279   1.406       .  A
C924        C925   1.413       .  A
C924       Br935   1.932       .  S
C925        C926   1.422       .  A
C925       Br931   1.932       .  S
C926       C1278   1.420       .  A
C927       C1277   1.420   1_545  A
C927        C928   1.411       .  A
C927       Br936   1.932       .  S
C928       C1274   1.406   1_545  A
C928       Br932   1.930       .  S
C937        N938   1.361       .  A
C937        N942   1.362       .  A
C937       C1034   1.489       .  S
N938       C1290   1.359       .  A
C939       N1289   1.359       .  A
C939        N940   1.357       .  A
C939       C1342   1.464       .  S
N940        C941   1.357       .  A
C941       N1293   1.360       .  A
C941       C1001   1.468       .  S
N942       C1292   1.360       .  A
C943        N944   1.362       .  A
C943        N948   1.364       .  A
C943       C1043   1.500       .  S
N944        C945   1.360       .  A
C945        N946   1.357       .  A
C945       C1362   1.466       .  S
N946        C947   1.357       .  A
C947        N948   1.360       .  A
C947       C1348   1.469       .  S
C949        N950   1.362       .  A
C949        N954   1.361       .  A
C949       C1023   1.493       .  S
N950        C951   1.360       .  A
C951        N952   1.357       .  A
C951        C969   1.465       .  S
N952        C953   1.356       .  A
C953        N954   1.359       .  A
C953        C976   1.464       .  S
C955        N956   1.364       .  A
C955        N960   1.360       .  A
C955       C1014   1.497       .  S
N956        C957   1.361       .  A
C957        N958   1.357       .  A
C957        C961   1.467       .  S
N958        C959   1.356       .  A
C959        N960   1.357       .  A
C959        C981   1.462       .  S
C961        N979   1.347       .  A
C961        C998   1.462       .  S
N962        N979   1.325       .  A
N962        N984   1.321       .  A
C963        N988   1.344       .  A
C963       C1001   1.458       .  S
C963       H1008   1.084       .  S
H964       C1005   1.082       .  S
C965        N989   1.344       .  A
C965        C969   1.459       .  S
Co966      N1006   2.086       .  S
Co966       N982   2.093       .  S
Co966     Cl1361   2.458       .  S
N967       C1005   1.344       .  A
N967       N1325   1.321   1_545  A
Co968       N988   2.094       .  S
Co968       N975   2.086       .  S
Co968     Cl1010   2.457       .  S
C969       N1007   1.348       .  A
N970       N1328   1.321   1_545  A
N970       N1000   1.326       .  A
N970      Co1003   2.089       .  S
N971        N989   1.321       .  A
N971       N1007   1.326       .  A
N972       C1352   1.349       .  A
N972        N982   1.326       .  A
H973        C998   1.080       .  S
N974       N1318   1.321       .  A
N974        N995   1.325       .  A
N975        N993   1.322       .  A
N975        N980   1.324       .  A
C976        N980   1.347       .  A
C976       C1004   1.459       .  S
N977        C992   1.344       .  A
N977       N1321   1.321       .  A
C978       N1006   1.342       .  A
C978        C981   1.454       .  S
C978       H1012   1.082       .  S
C981       N1002   1.349       .  A
N982       N1339   1.321       .  A
N983       C1009   1.343       .  A
N983       N1336   1.321       .  A
N983       Co999   2.092   1_655  S
N984        C998   1.346       .  A
N985       N1334   1.321   1_545  A
N985       N1013   1.326       .  A
H986       C1009   1.085       .  S
N988       N1333   1.321   1_545  A
N990       N1002   1.325       .  A
N990       N1006   1.321       .  A
C991        N995   1.347       .  A
C991       C1290   1.464       .  S
C991       C1356   1.459       .  S
C992       C1362   1.458       .  S
C992        H996   1.080       .  S
N993       C1004   1.344       .  A
C997       N1013   1.351   1_565  A
C997       C1298   1.469       .  S
C997       C1360   1.457       .  S
N1000      C1011   1.348   1_545  A
C1001      N1323   1.349   1_545  A
C1005      C1342   1.459       .  S
C1009      C1348   1.457       .  S
Cl1010    Co1317   2.458   1_545  S
C1011      C1296   1.466       .  S
C1011      C1343   1.458       .  S
C1014      C1015   1.418       .  A
C1014      C1019   1.420       .  A
C1015      C1016   1.410       .  A
C1015     Br1027   1.932       .  S
C1016      C1017   1.408       .  A
C1016     Br1031   1.932       .  S
C1017      C1020   1.492       .  S
C1017      C1018   1.408       .  A
C1018      C1019   1.412       .  A
C1018     Br1026   1.930       .  S
C1019     Br1030   1.933       .  S
C1020      C1021   1.408       .  A
C1020      C1025   1.409       .  A
C1021      C1022   1.410       .  A
C1022      C1023   1.417       .  A
C1023      C1024   1.417       .  A
C1024      C1025   1.412       .  A
C1024     Br1033   1.932       .  S
C1025     Br1029   1.930       .  S
C1034      C1386   1.415       .  A
C1034      C1039   1.414       .  A
C1035      C1385   1.415       .  A
C1035      C1036   1.411       .  A
C1035     Br1047   1.930       .  S
C1036      C1388   1.409       .  A
C1036     Br1051   1.931       .  S
C1037      C1040   1.493       .  S
C1037      C1387   1.409       .  A
C1037      C1038   1.409       .  A
C1038      C1039   1.411       .  A
C1038     Br1046   1.929       .  S
C1039     Br1050   1.930       .  S
C1040      C1041   1.408       .  A
C1040      C1396   1.406       .  A
C1041      C1042   1.413       .  A
C1041     Br1052   1.932       .  S
C1042      C1043   1.422       .  A
C1042     Br1048   1.932       .  S
C1043      C1395   1.420       .  A
C1044      C1394   1.420   1_545  A
C1044      C1045   1.411       .  A
C1044     Br1053   1.932       .  S
C1045      C1391   1.406   1_545  A
C1045     Br1049   1.930       .  S
C1054      N1055   1.361       .  A
C1054      N1059   1.362       .  A
C1054      C1151   1.489       .  S
C1056      N1057   1.357       .  A
N1057      C1058   1.357       .  A
C1058      C1118   1.468       .  S
C1060      N1061   1.362       .  A
C1060      N1065   1.364       .  A
C1060      C1160   1.500       .  S
N1061      C1062   1.360       .  A
C1062      N1063   1.357       .  A
N1063      C1064   1.357       .  A
C1064      N1065   1.360       .  A
C1066      N1067   1.362       .  A
C1066      N1071   1.361       .  A
C1066      C1140   1.493       .  S
N1067      C1068   1.360       .  A
C1068      N1069   1.357       .  A
C1068      C1086   1.465       .  S
N1069      C1070   1.356       .  A
C1070      N1071   1.359       .  A
C1070      C1093   1.464       .  S
C1072      N1073   1.364       .  A
C1072      N1077   1.360       .  A
C1072      C1131   1.497       .  S
N1073      C1074   1.361       .  A
C1074      N1075   1.357       .  A
C1074      C1078   1.467       .  S
N1075      C1076   1.356       .  A
C1076      N1077   1.357       .  A
C1076      C1098   1.462       .  S
C1078      N1096   1.347       .  A
C1078      C1115   1.462       .  S
N1079      N1096   1.325       .  A
N1079      N1101   1.321       .  A
C1080      N1105   1.344       .  A
C1080      C1118   1.458       .  S
C1080      H1125   1.084       .  S
H1081      C1122   1.082       .  S
C1082      N1106   1.344       .  A
C1082      C1086   1.459       .  S
Co1083     N1218   2.102       .  S
Co1083     N1208   2.082       .  S
Co1083     N1123   2.086       .  S
Co1083     N1099   2.093       .  S
N1084      C1122   1.344       .  A
N1084     Co1319   2.095   1_554  S
Co1085     N1201   2.095       .  S
Co1085     N1205   2.085       .  S
Co1085     N1105   2.094       .  S
Co1085     N1092   2.086       .  S
Co1085    Cl1127   2.457       .  S
C1086      N1124   1.348       .  A
N1087      N1117   1.326       .  A
N1087     Co1120   2.089   1_554  S
N1088      N1106   1.321       .  A
N1088      N1124   1.326       .  A
N1088     Co1319   2.085   1_554  S
N1089      N1099   1.326       .  A
H1090      C1115   1.080       .  S
N1091      N1112   1.324       .  A
N1091     Co1317   2.082   1_554  S
N1092      N1110   1.322       .  A
N1092      N1097   1.324       .  A
C1093      N1097   1.347       .  A
C1093      C1121   1.459       .  S
N1094      C1109   1.344       .  A
N1094     Co1350   2.096   1_654  S
C1095      N1123   1.342       .  A
C1095      C1098   1.454       .  S
C1095      H1129   1.082       .  S
C1098      N1119   1.349       .  A
N1100      C1126   1.343       .  A
N1100     Co1116   2.092   1_655  S
N1101      C1115   1.346       .  A
N1101     Co1317   2.102   1_554  S
N1102      N1130   1.326       .  A
N1102     Co1237   2.095       .  S
H1103      C1126   1.085       .  S
N1107      N1119   1.325       .  A
N1107      N1123   1.321       .  A
C1108      N1112   1.347   1_545  A
C1109      H1113   1.080       .  S
N1110      C1121   1.344       .  A
C1114      N1130   1.351       .  A
Co1116     N1211   2.096   1_455  S
N1117      C1128   1.348       .  A
Co1120     N1336   2.095       .  S
C1131      C1132   1.418       .  A
C1131      C1136   1.420       .  A
C1132      C1133   1.410       .  A
C1132     Br1144   1.932       .  S
C1133      C1134   1.408       .  A
C1133     Br1148   1.932       .  S
C1134      C1137   1.492       .  S
C1134      C1135   1.408       .  A
C1135      C1136   1.412       .  A
C1135     Br1143   1.930       .  S
C1136     Br1147   1.933       .  S
C1137      C1138   1.408       .  A
C1137      C1142   1.409       .  A
C1138      C1139   1.410       .  A
C1139      C1140   1.417       .  A
C1140      C1141   1.417       .  A
C1141      C1142   1.412       .  A
C1141     Br1150   1.932       .  S
C1142     Br1146   1.930       .  S
C1151      C1156   1.414   1_545  A
C1152      C1153   1.411       .  A
C1152     Br1164   1.930       .  S
C1153     Br1168   1.931       .  S
C1154      C1157   1.493   1_545  S
C1154      C1155   1.409   1_545  A
C1155      C1156   1.411       .  A
C1155     Br1163   1.929       .  S
C1156     Br1167   1.930       .  S
C1157      C1158   1.408       .  A
C1158      C1159   1.413       .  A
C1158     Br1169   1.932       .  S
C1159      C1160   1.422       .  A
C1159     Br1165   1.932       .  S
C1161      C1162   1.411       .  A
C1161     Br1170   1.932       .  S
C1162     Br1166   1.930       .  S
C1171      N1172   1.361       .  A
C1171      N1176   1.362       .  A
C1171      C1268   1.489       .  S
C1173      N1174   1.357       .  A
N1174      C1175   1.357       .  A
C1175      C1235   1.468       .  S
C1177      N1178   1.362       .  A
C1177      N1182   1.364       .  A
C1177      C1277   1.500       .  S
N1178      C1179   1.360       .  A
C1179      N1180   1.357       .  A
N1180      C1181   1.357       .  A
C1181      N1182   1.360       .  A
C1183      N1184   1.362       .  A
C1183      N1188   1.361       .  A
C1183      C1257   1.493       .  S
N1184      C1185   1.360       .  A
C1185      N1186   1.357       .  A
C1185      C1203   1.465       .  S
N1186      C1187   1.356       .  A
C1187      N1188   1.359       .  A
C1187      C1210   1.464       .  S
C1189      N1190   1.364       .  A
C1189      N1194   1.360       .  A
C1189      C1248   1.497       .  S
N1190      C1191   1.361       .  A
C1191      N1192   1.357       .  A
C1191      C1195   1.467       .  S
N1192      C1193   1.356       .  A
C1193      N1194   1.357       .  A
C1193      C1215   1.462       .  S
C1195      N1213   1.347       .  A
C1195      C1232   1.462       .  S
N1196      N1213   1.325       .  A
N1196      N1218   1.321       .  A
C1197      N1222   1.344       .  A
C1197      C1235   1.458       .  S
C1197      H1242   1.084       .  S
H1198      C1239   1.082       .  S
C1199      N1223   1.344       .  A
C1199      C1203   1.459       .  S
Co1200     N1335   2.102       .  S
Co1200     N1325   2.082       .  S
Co1200     N1240   2.086       .  S
Co1200     N1216   2.093       .  S
N1201      C1239   1.344       .  A
Co1202     N1318   2.095       .  S
Co1202     N1322   2.085       .  S
Co1202     N1222   2.094       .  S
Co1202     N1209   2.086       .  S
Co1202    Cl1244   2.457       .  S
C1203      N1241   1.348       .  A
N1204      N1234   1.326       .  A
N1204     Co1237   2.089       .  S
N1205      N1223   1.321       .  A
N1205      N1241   1.326       .  A
N1206      N1216   1.326       .  A
H1207      C1232   1.080       .  S
N1208      N1229   1.325       .  A
N1209      N1227   1.322       .  A
N1209      N1214   1.324       .  A
C1210      N1214   1.347       .  A
C1210      C1238   1.459       .  S
N1211      C1226   1.344       .  A
C1212      N1240   1.342       .  A
C1212      C1215   1.454       .  S
C1212      H1246   1.082       .  S
C1215      N1236   1.349       .  A
N1217      C1243   1.343       .  A
N1217     Co1233   2.092   1_655  S
N1218      C1232   1.346       .  A
N1219      N1247   1.326       .  A
N1219     Co1354   2.095       .  S
H1220      C1243   1.085       .  S
N1224      N1236   1.325       .  A
N1224      N1240   1.321       .  A
C1225      N1229   1.347   1_545  A
C1226      H1230   1.080       .  S
N1227      C1238   1.344       .  A
C1231      N1247   1.351       .  A
Co1233     N1328   2.096   1_455  S
N1234      C1245   1.348       .  A
C1248      C1249   1.418       .  A
C1248      C1253   1.420       .  A
C1249      C1250   1.410       .  A
C1249     Br1261   1.932       .  S
C1250      C1251   1.408       .  A
C1250     Br1265   1.932       .  S
C1251      C1254   1.492       .  S
C1251      C1252   1.408       .  A
C1252      C1253   1.412       .  A
C1252     Br1260   1.930       .  S
C1253     Br1264   1.933       .  S
C1254      C1255   1.408       .  A
C1254      C1259   1.409       .  A
C1255      C1256   1.410       .  A
C1256      C1257   1.417       .  A
C1257      C1258   1.417       .  A
C1258      C1259   1.412       .  A
C1258     Br1267   1.932       .  S
C1259     Br1263   1.930       .  S
C1268      C1273   1.414   1_545  A
C1269      C1270   1.411       .  A
C1269     Br1281   1.930       .  S
C1270     Br1285   1.931       .  S
C1271      C1274   1.493   1_545  S
C1271      C1272   1.409   1_545  A
C1272      C1273   1.411       .  A
C1272     Br1280   1.929       .  S
C1273     Br1284   1.930       .  S
C1274      C1275   1.408       .  A
C1275      C1276   1.413       .  A
C1275     Br1286   1.932       .  S
C1276      C1277   1.422       .  A
C1276     Br1282   1.932       .  S
C1278      C1279   1.411       .  A
C1278     Br1287   1.932       .  S
C1279     Br1283   1.930       .  S
C1288      N1289   1.361       .  A
C1288      N1293   1.362       .  A
C1288      C1385   1.489       .  S
C1290      N1291   1.357       .  A
N1291      C1292   1.357       .  A
C1292      C1352   1.468       .  S
C1294      N1295   1.362       .  A
C1294      N1299   1.364       .  A
C1294      C1394   1.500       .  S
N1295      C1296   1.360       .  A
C1296      N1297   1.357       .  A
N1297      C1298   1.357       .  A
C1298      N1299   1.360       .  A
C1300      N1301   1.362       .  A
C1300      N1305   1.361       .  A
C1300      C1374   1.493       .  S
N1301      C1302   1.360       .  A
C1302      N1303   1.357       .  A
C1302      C1320   1.465       .  S
N1303      C1304   1.356       .  A
C1304      N1305   1.359       .  A
C1304      C1327   1.464       .  S
C1306      N1307   1.364       .  A
C1306      N1311   1.360       .  A
C1306      C1365   1.497       .  S
N1307      C1308   1.361       .  A
C1308      N1309   1.357       .  A
C1308      C1312   1.467       .  S
N1309      C1310   1.356       .  A
C1310      N1311   1.357       .  A
C1310      C1332   1.462       .  S
C1312      N1330   1.347       .  A
C1312      C1349   1.462       .  S
N1313      N1330   1.325       .  A
N1313      N1335   1.321       .  A
C1314      N1339   1.344       .  A
C1314      C1352   1.458       .  S
C1314      H1359   1.084       .  S
H1315      C1356   1.082       .  S
C1316      N1340   1.344       .  A
C1316      C1320   1.459       .  S
Co1317     N1357   2.086       .  S
Co1317     N1333   2.093       .  S
N1318      C1356   1.344       .  A
Co1319     N1339   2.094       .  S
Co1319     N1326   2.086       .  S
Co1319    Cl1361   2.457       .  S
C1320      N1358   1.348       .  A
N1321      N1351   1.326       .  A
N1321     Co1354   2.089       .  S
N1322      N1340   1.321       .  A
N1322      N1358   1.326       .  A
N1323      N1333   1.326       .  A
H1324      C1349   1.080       .  S
N1325      N1346   1.325       .  A
N1326      N1344   1.322       .  A
N1326      N1331   1.324       .  A
C1327      N1331   1.347       .  A
C1327      C1355   1.459       .  S
N1328      C1343   1.344       .  A
C1329      N1357   1.342       .  A
C1329      C1332   1.454       .  S
C1329      H1363   1.082       .  S
C1332      N1353   1.349       .  A
N1334      C1360   1.343       .  A
N1334     Co1350   2.092   1_655  S
N1335      C1349   1.346       .  A
N1336      N1364   1.326       .  A
H1337      C1360   1.085       .  S
N1341      N1353   1.325       .  A
N1341      N1357   1.321       .  A
C1342      N1346   1.347   1_545  A
C1343      H1347   1.080       .  S
N1344      C1355   1.344       .  A
C1348      N1364   1.351       .  A
N1351      C1362   1.348       .  A
C1365      C1366   1.418       .  A
C1365      C1370   1.420       .  A
C1366      C1367   1.410       .  A
C1366     Br1378   1.932       .  S
C1367      C1368   1.408       .  A
C1367     Br1382   1.932       .  S
C1368      C1371   1.492       .  S
C1368      C1369   1.408       .  A
C1369      C1370   1.412       .  A
C1369     Br1377   1.930       .  S
C1370     Br1381   1.933       .  S
C1371      C1372   1.408       .  A
C1371      C1376   1.409       .  A
C1372      C1373   1.410       .  A
C1373      C1374   1.417       .  A
C1374      C1375   1.417       .  A
C1375      C1376   1.412       .  A
C1375     Br1384   1.932       .  S
C1376     Br1380   1.930       .  S
C1385      C1390   1.414   1_545  A
C1386      C1387   1.411       .  A
C1386     Br1398   1.930       .  S
C1387     Br1402   1.931       .  S
C1388      C1391   1.493   1_545  S
C1388      C1389   1.409   1_545  A
C1389      C1390   1.411       .  A
C1389     Br1397   1.929       .  S
C1390     Br1401   1.930       .  S
C1391      C1392   1.408       .  A
C1392      C1393   1.413       .  A
C1392     Br1403   1.932       .  S
C1393      C1394   1.422       .  A
C1393     Br1399   1.932       .  S
C1395      C1396   1.411       .  A
C1395     Br1404   1.932       .  S
C1396     Br1400   1.930       .  S
