geometry optimzed in LAMMPS
_audit_creation_date              2020-11-30 
_audit_creation_method            'lammps2cif' 
_symmetry_space_group_name_H-M    'P1' 
_symmetry_Int_Tables_number       1 
_symmetry_cell_setting            triclinic 
loop_ 
_symmetry_equiv_pos_as_xyz 
  x,y,z 
_cell_length_a                    34.16878172 
_cell_length_b                    33.41699581340386 
_cell_length_c                    32.53737214680154 
_cell_angle_alpha                 90.92562247654263 
_cell_angle_beta                  90.56577777604541 
_cell_angle_gamma                 120.50772922175976 
loop_ 
_atom_site_label 
_atom_site_type_symbol 
_atom_site_fract_x 
_atom_site_fract_y 
_atom_site_fract_z 
_atom_site_charge 
C1          C  0.93358425  0.82721432  0.35514959     0.03900
C2          C  0.89082423  0.80900770  0.33417045    -0.12300
C3          C  0.86997048  0.76559168  0.31299158     0.01400
C4          C  0.89237441  0.74087193  0.31183869    -0.10800
C5          C  0.93420384  0.75738275  0.33147992     0.03800
C6          C  0.95342566  0.79909288  0.35560857    -0.10200
H7          H  0.87491308  0.82967302  0.33334420     0.09400
H8          H  0.87790130  0.70894346  0.29337717     0.07000
H9          H  0.98504987  0.81154939  0.37173632     0.06800
C10         C  0.82039263  0.89136226  0.30571751     0.03900
C11         C  0.80195668  0.84255800  0.30774936    -0.12300
C12         C  0.75917024  0.81365276  0.32564560     0.01400
C13         C  0.73509726  0.83340258  0.34130060    -0.10800
C14         C  0.75088599  0.88044175  0.33871529     0.03800
C15         C  0.79285671  0.90933893  0.31969181    -0.10200
H16         H  0.82125110  0.82747694  0.29682117     0.09400
H17         H  0.70366809  0.81161860  0.35724503     0.07000
H18         H  0.80439146  0.94554417  0.31681409     0.06800
C19         C  0.17966892  0.06690130  0.35019766     0.03900
C20         C  0.20326408  0.04346858  0.34045635    -0.12300
C21         C  0.24570451  0.06598807  0.32117359     0.01400
C22         C  0.26648124  0.11319836  0.31414684    -0.10800
C23         C  0.24681363  0.13920193  0.32575880     0.03800
C24         C  0.20238451  0.11555904  0.34252566    -0.10200
H25         H  0.18742964  0.00724135  0.34587568     0.09400
H26         H  0.29858827  0.13000840  0.29831018     0.07000
H27         H  0.18528973  0.13447351  0.34818694     0.06800
N28         N  0.56332591  0.53984360  0.06293289    -0.35900
N29         N  0.51783328  0.48440698  0.13460751    -0.56400
N30         N  0.44193189  0.42148440  0.08024869    -0.35900
N31         N  0.48555041  0.47867617  0.00955915    -0.56400
C32         C  0.59380029  0.56684822  0.09271881     0.27700
C33         C  0.57764411  0.56233637  0.02703215     0.27700
C34         C  0.42422486  0.40687145  0.11786465     0.27700
C35         C  0.40665337  0.40452725  0.05283052     0.27700
C36         C  0.55894329  0.51393734  0.15229398     0.36300
C37         C  0.49536785  0.44867531  0.16044339     0.36300
C38         C  0.51395675  0.50509516  0.48122432     0.36300
C39         C  0.44863660  0.44331222  0.49103474     0.36300
C40         C  0.62819300  0.60674705  0.07519047    -0.21200
C41         C  0.61798576  0.60395153  0.03405075    -0.21200
C42         C  0.37719828  0.38070626  0.11423075    -0.21200
C43         C  0.36618199  0.37891367  0.07322656    -0.21200
C44         C  0.56224544  0.49727815  0.19014398    -0.22200
C45         C  0.52257496  0.45546674  0.19480492    -0.22200
C46         C  0.49482237  0.48736843  0.44264114    -0.22200
C47         C  0.45344711  0.44811693  0.44885339    -0.22200
C48         C  0.59348344  0.55567656  0.13478951    -0.17600
C49         C  0.55689304  0.54596953  0.98756837    -0.17600
C50         C  0.40996397  0.40879811  0.00956265    -0.17600
C51         C  0.44939856  0.41227420  0.15464870    -0.17600
H52         H  0.65838574  0.63474305  0.09008546     0.15300
H53         H  0.63857007  0.62953126  0.01174945     0.15300
H54         H  0.35330167  0.36360740  0.13852702     0.15300
H55         H  0.33220122  0.36041196  0.05988021     0.15300
H56         H  0.59056798  0.51307423  0.21186971     0.13600
H57         H  0.51437488  0.43323509  0.22099963     0.13600
H58         H  0.50915733  0.50127672  0.41311460     0.13600
H59         H  0.42948858  0.42593935  0.42506297     0.13600
H60         H  0.53615219  0.50668758  0.06633448     0.26900
H61         H  0.47600065  0.43625601  0.07304383     0.26900
C62         C  0.06593041  0.13180541  0.29967273     0.03900
C63         C  0.11119615  0.15070876  0.31484180    -0.12300
C64         C  0.13452899  0.19470543  0.33456114     0.01400
C65         C  0.11239261  0.21930428  0.34044593    -0.10800
C66         C  0.06676117  0.19996591  0.33003258     0.03800
C67         C  0.04456685  0.15800176  0.30626516    -0.10200
H68         H  0.12712750  0.12997525  0.31306291     0.09400
H69         H  0.12959115  0.25198541  0.35787295     0.07000
H70         H  0.01013137  0.14364486  0.29598467     0.06800
C71         C  0.08556830  0.89673074  0.30830110     0.03900
C72         C  0.13384701  0.92130238  0.30969264    -0.12300
C73         C  0.15810923  0.90213562  0.32839412     0.01400
C74         C  0.13464701  0.85658437  0.34084368    -0.10800
C75         C  0.08802405  0.82952149  0.33647793     0.03800
C76         C  0.06359061  0.84978449  0.32035106    -0.10200
H77         H  0.15147749  0.95668943  0.30035163     0.09400
H78         H  0.15312286  0.84236190  0.35626987     0.07000
H79         H  0.02764549  0.83080360  0.32028066     0.06800
C80         C  0.91467324  0.06283699  0.35244546     0.03900
C81         C  0.86655206  0.03600396  0.35040037    -0.12300
C82         C  0.84045995  0.05432993  0.33435539     0.01400
C83         C  0.86166345  0.10146917  0.32661961    -0.10800
C84         C  0.90861701  0.12954869  0.32845243     0.03800
C85         C  0.93490015  0.11082656  0.34379491    -0.10200
H86         H  0.85068930  0.99944334  0.35578077     0.09400
H87         H  0.84165412  0.11497545  0.31299281     0.07000
H88         H  0.97083095  0.13263545  0.34742491     0.06800
N89         N  0.96812516  0.52513000  0.08054852    -0.35900
N90         N  0.92163855  0.44505517  0.13279499    -0.56400
N91         N  0.94764792  0.39609830  0.07405864    -0.35900
N92         N  0.98871983  0.47321502  0.02074167    -0.56400
C93         C  0.94814263  0.53970475  0.10781926     0.27700
C94         C  0.97949643  0.55292541  0.04764185     0.27700
C95         C  0.91508035  0.36237361  0.09670426     0.27700
C96         C  0.94793857  0.37678216  0.03724741     0.27700
C97         C  0.92757694  0.47900073  0.15965704     0.36300
C98         C  0.91578871  0.40909305  0.15568184     0.36300
C99         C  0.01721587  0.51844343  0.50983197     0.36300
C100        C  0.00738747  0.44900979  0.50796086     0.36300
C101        C  0.94665408  0.57724765  0.09219988    -0.21200
C102        C  0.96570596  0.58509231  0.05381496    -0.21200
C103        C  0.89332962  0.32118170  0.07399899    -0.21200
C104        C  0.91290236  0.33069571  0.03571337    -0.21200
C105        C  0.92337133  0.46378520  0.19965707    -0.22200
C106        C  0.91612313  0.41939247  0.19712348    -0.22200
C107        C  0.05443989  0.52181398  0.49015057    -0.22200
C108        C  0.04906820  0.47797597  0.49033963    -0.22200
C109        C  0.93691149  0.52354820  0.14830806    -0.17600
C110        C  0.00669860  0.55311737  0.01490850    -0.17600
C111        C  0.98379115  0.39886463  0.00880805    -0.17600
C112        C  0.91041626  0.36733220  0.13908909    -0.17600
H113        H  0.93406583  0.59746550  0.10730002     0.15300
H114        H  0.97083210  0.61277864  0.03372136     0.15300
H115        H  0.86692630  0.28770420  0.08428287     0.15300
H116        H  0.90454456  0.30567671  0.01075749     0.15300
H117        H  0.92612279  0.48296840  0.22771781     0.13600
H118        H  0.91198070  0.39740718  0.22274899     0.13600
H119        H  0.08256928  0.55265323  0.47749060     0.13600
H120        H  0.07233008  0.46833292  0.47756689     0.13600
H121        H  0.97903655  0.50186204  0.08673851     0.26900
H122        H  0.97297891  0.42836601  0.08573464     0.26900
N123        N  0.42028667  0.93767278  0.07833484    -0.35900
N124        N  0.49116763  0.96045238  0.14045323    -0.56400
N125        N  0.52210856  0.91224918  0.09096795    -0.35900
N126        N  0.44888344  0.88405516  0.02918316    -0.56400
C127        C  0.40545410  0.95254891  0.11026096     0.27700
C128        C  0.38532869  0.91547765  0.05096630     0.27700
C129        C  0.54093703  0.91412425  0.12828183     0.27700
C130        C  0.52194093  0.87784841  0.06861820     0.27700
C131        C  0.47785900  0.99103944  0.14990586     0.36300
C132        C  0.53378529  0.97823071  0.15591616     0.36300
C133        C  0.42278088  0.88979485  0.00110189     0.36300
C134        C  0.47935058  0.87928502  0.50781692     0.36300
C135        C  0.36023323  0.93910732  0.10328383    -0.21200
C136        C  0.34776946  0.91634591  0.06548107    -0.21200
C137        C  0.55025861  0.87827145  0.13039139    -0.21200
C138        C  0.53983438  0.85649522  0.09202881    -0.21200
C139        C  0.51210473  0.02888884  0.17148469    -0.22200
C140        C  0.54833734  0.02156292  0.17402685    -0.22200
C141        C  0.43573668  0.88718654  0.46174010    -0.22200
C142        C  0.47150207  0.87943959  0.46596330    -0.22200
C143        C  0.43322835  0.98177555  0.14320487    -0.17600
C144        C  0.38897379  0.90067018  0.01099757    -0.17600
C145        C  0.51379719  0.87225106  0.02586571    -0.17600
C146        C  0.55635043  0.95243504  0.15649465    -0.17600
H147        H  0.33901242  0.94670529  0.12248390     0.15300
H148        H  0.31517409  0.90296854  0.04995796     0.15300
H149        H  0.56633193  0.87103173  0.15571060     0.15300
H150        H  0.54607274  0.82920726  0.08213487     0.15300
H151        H  0.51097118  0.05849692  0.18395749     0.13600
H152        H  0.58088449  0.04469324  0.18881249     0.13600
H153        H  0.42126914  0.89018717  0.43302841     0.13600
H154        H  0.48991976  0.87494913  0.44116395     0.13600
H155        H  0.45390391  0.94745916  0.07287799     0.26900
H156        H  0.51708020  0.93794903  0.07863243     0.26900
O157        O  0.99195123  0.89816668  0.39413209    -0.80200
O158        O  0.04863851  0.05698468  0.31368928    -0.64900
O159        O  0.02209928  0.98854191  0.36128079    -1.11500
C160        C  0.87124692  0.92372470  0.30297033     1.06700
O161        O  0.00804702  0.06090642  0.26175090    -0.78100
O162        O  0.92935553  0.02557842  0.30038085    -0.65600
Ni163      Ni  0.04816700  0.96139235  0.39443569     1.34900
C164        C  0.93750909  0.03690013  0.33784335     0.85500
O165        O  0.10628971  0.02730573  0.31983966    -0.78600
O166        O  0.10823015  0.02014967  0.38873970    -0.88900
C167        C  0.03898825  0.08046075  0.29025137     0.85000
O168        O  0.07226928  0.93659086  0.35791453    -0.67100
O169        O  0.89152347  0.94087807  0.26855466    -0.86400
C170        C  0.06418640  0.92472108  0.32072842     0.85900
C171        C  0.12837071  0.03756010  0.35413751     1.07400
H172        H  0.96727798  0.94156756  0.28249114     0.39200
O173        O  0.97727416  0.97119342  0.29621783    -1.09000
O174        O  0.95956993  0.02295784  0.36022363    -0.65700
Ni175      Ni  0.95712891  0.96226634  0.35141116     1.26300
O176        O  0.04145967  0.93769049  0.29788500    -0.65900
O177        O  0.89302834  0.93415080  0.33752052    -0.78200
C178        C  0.96010128  0.87875705  0.36615256     0.85200
O179        O  0.94935397  0.90253493  0.34416306    -0.65400
Ni180      Ni  0.95151403  0.99889681  0.26293298     1.27400
Ni181      Ni  0.04225405  0.99793927  0.30622152     1.26600
H182        H  0.03214128  0.01808593  0.37514646     0.39800
C183        C  0.64056140  0.00145239  0.24913191    -0.04700
C184        C  0.67377043  0.98986118  0.23838063     0.09400
C185        C  0.66754326  0.96631347  0.20002325    -0.02100
C186        C  0.63478295  0.96302191  0.17139846    -0.00400
C187        C  0.59697410  0.96593714  0.18511226    -0.04000
C188        C  0.59922173  0.98197569  0.22632222     0.03000
C189        C  0.71580376  0.00374782  0.26518219     0.09900
C190        C  0.69418730  0.94503545  0.18956317     0.35800
C191        C  0.55938094  0.97677164  0.24660693     0.39200
C192        C  0.71378401  0.99635429  0.30837859    -0.04400
C193        C  0.75434271  0.01085376  0.33192257     0.02800
C194        C  0.79576856  0.02566299  0.31213006    -0.04000
C195        C  0.79615683  0.02708910  0.26883791    -0.00200
C196        C  0.75882069  0.02312401  0.24673365    -0.02800
C197        C  0.67067193  0.97584432  0.32878454     0.36500
C198        C  0.83563868  0.03387146  0.24690557     0.40100
C199        C  0.75466643  0.01295508  0.37634130     0.39300
C200        C  0.76610063  0.04277122  0.20608927     0.36200
C201        C  0.64985997  0.03637832  0.28075923     0.36900
C202        C  0.64233933  0.95987058  0.12794138     0.40100
N203        N  0.75712392  0.01593079  0.41185410    -0.38000
N204        N  0.63569158  0.96038296  0.34414923    -0.39500
N205        N  0.86606450  0.03731713  0.22874577    -0.37300
N206        N  0.77203946  0.05878271  0.17385278    -0.39700
N207        N  0.71533293  0.92796401  0.18116630    -0.39500
N208        N  0.64865575  0.95778011  0.09329102    -0.37100
N209        N  0.52779499  0.97256078  0.26330321    -0.38100
N210        N  0.65733582  0.06477054  0.30552172    -0.39800
C211        C  0.87817481  0.26432269  0.20923750    -0.04700
C212        C  0.92156414  0.27361810  0.22302254     0.09400
C213        C  0.96068688  0.31344621  0.20855727    -0.02100
C214        C  0.95646473  0.34292466  0.18057477    -0.00400
C215        C  0.91320232  0.33388802  0.16734242    -0.04000
C216        C  0.87403350  0.29486593  0.18219391     0.03000
C217        C  0.92563436  0.24097642  0.25208741     0.09900
C218        C  0.00574861  0.32561607  0.22270115     0.35800
C219        C  0.82959815  0.28665459  0.17007593     0.39200
C220        C  0.93822462  0.20923756  0.23731635    -0.04400
C221        C  0.93806564  0.17568852  0.26362141     0.02800
C222        C  0.92654024  0.17417325  0.30564603    -0.04000
C223        C  0.91648604  0.20785242  0.32068771    -0.00200
C224        C  0.91438065  0.23976825  0.29391168    -0.02800
C225        C  0.94902143  0.20955179  0.19423931     0.36500
C226        C  0.90668099  0.20844403  0.36384216     0.40100
C227        C  0.94811612  0.14176090  0.24642565     0.39300
C228        C  0.89959802  0.27082627  0.30930695     0.36200
C229        C  0.83775710  0.22291786  0.22258460     0.36900
C230        C  0.99697067  0.38347747  0.16575176     0.40100
N231        N  0.95709654  0.11579758  0.23159834    -0.38000
N232        N  0.95761559  0.20999343  0.15987041    -0.39500
N233        N  0.89919659  0.20910840  0.39835879    -0.37300
N234        N  0.88793625  0.29571529  0.32158788    -0.39700
N235        N  0.04286141  0.33829840  0.23280974    -0.39500
N236        N  0.02907395  0.41585483  0.15389409    -0.37100
N237        N  0.79416170  0.28036517  0.16051762    -0.38100
N238        N  0.80563401  0.18975469  0.23329186    -0.39800
C239        C  0.25520838  0.95060152  0.40467518    -0.04700
C240        C  0.27805896  0.92839348  0.38920803     0.09400
C241        C  0.26768020  0.90943327  0.34870680    -0.02100
C242        C  0.23511338  0.91285118  0.32422807    -0.00400
C243        C  0.20688595  0.92767749  0.34209867    -0.04000
C244        C  0.21779245  0.94731510  0.38255672     0.03000
C245        C  0.30860122  0.92032511  0.41745693     0.09900
C246        C  0.28649428  0.88174673  0.33376214     0.35800
C247        C  0.18644094  0.95695441  0.40422249     0.39200
C248        C  0.29279431  0.87604489  0.43457198    -0.04400
C249        C  0.31969019  0.86946184  0.46404437     0.02800
C250        C  0.36200001  0.90725524  0.47740001    -0.04000
C251        C  0.37799250  0.95115000  0.46007328    -0.00200
C252        C  0.35191812  0.95743335  0.42978269    -0.02800
C253        C  0.24836765  0.83745840  0.42252005     0.36500
C254        C  0.42108041  0.99033509  0.47445231     0.40100
C255        C  0.30267336  0.82257080  0.98144990     0.39300
C256        C  0.37007143  0.00251777  0.41177336     0.36200
C257        C  0.26708587  0.97262062  0.44527638     0.36900
C258        C  0.22524246  0.89387707  0.28251501     0.40100
N259        N  0.28942122  0.78644666  0.99553672    -0.38000
N260        N  0.21270302  0.80539055  0.91214866    -0.39500
N261        N  0.45526866  0.02136993  0.48640078    -0.37300
N262        N  0.38636299  0.03921426  0.39834158    -0.39700
N263        N  0.30087660  0.85900393  0.32198149    -0.39500
N264        N  0.21709363  0.87862712  0.24928042    -0.37100
N265        N  0.16142329  0.96434941  0.42183574    -0.38100
N266        N  0.27691206  0.99061390  0.47747421    -0.39800
C267        C  0.02033446  0.61914831  0.41576816    -0.04700
C268        C  0.04797180  0.66597209  0.42921421     0.09400
C269        C  0.06861946  0.67527511  0.46888297    -0.02100
C270        C  0.05741774  0.63864503  0.49617953    -0.00400
C271        C  0.02475245  0.59250962  0.48447633    -0.04000
C272        C  0.00733407  0.58277884  0.44365842     0.03000
C273        C  0.05371253  0.70531986  0.40274573     0.09900
C274        C  0.10205140  0.72255172  0.48132467     0.35800
C275        C  0.97474756  0.53541896  0.43054880     0.39200
C276        C  0.03763787  0.73478183  0.41631431    -0.04400
C277        C  0.04840034  0.77535084  0.39469569     0.02800
C278        C  0.06779508  0.78263479  0.35534004    -0.04000
C279        C  0.08164482  0.75157876  0.34070066    -0.00200
C280        C  0.07767526  0.71543938  0.36565412    -0.02800
C281        C  0.01251767  0.72507020  0.45410063     0.36500
C282        C  0.10531301  0.76074339  0.30208624     0.40100
C283        C  0.04677981  0.81284045  0.41612677     0.39300
C284        C  0.10253326  0.69214942  0.35563988     0.36200
C285        C  0.00760188  0.60778628  0.37278939     0.36900
C286        C  0.07844986  0.64691207  0.03655035     0.40100
N287        N  0.04644866  0.84312157  0.43358289    -0.38000
N288        N  0.99255216  0.71728235  0.48429083    -0.39500
N289        N  0.12464694  0.76898789  0.27150221    -0.37300
N290        N  0.12275250  0.67380100  0.34825131    -0.39700
N291        N  0.12874320  0.76028751  0.49123011    -0.39500
N292        N  0.09595635  0.65409114  0.06863459    -0.37100
N293        N  0.94855876  0.49777373  0.41994841    -0.38100
N294        N  0.99940019  0.59775338  0.33829181    -0.39800
C295        C  0.03023157  0.36112995  0.41858755    -0.04700
C296        C  0.01726812  0.31485621  0.42813432     0.09400
C297        C  0.99436757  0.29805934  0.46583749    -0.02100
C298        C  0.99268127  0.32916652  0.49459481    -0.00400
C299        C  0.99592368  0.37088910  0.48093334    -0.04000
C300        C  0.01122864  0.38393277  0.44019273     0.03000
C301        C  0.02866432  0.28472800  0.40070573     0.09900
C302        C  0.97159880  0.24914562  0.47547110     0.35800
C303        C  0.00481470  0.41778060  0.41857617     0.39200
C304        C  0.04405077  0.25685312  0.41898530    -0.04400
C305        C  0.04511087  0.22148991  0.39595130     0.02800
C306        C  0.04365655  0.22138003  0.35253606    -0.04000
C307        C  0.03457164  0.25311996  0.33318603    -0.00200
C308        C  0.02369878  0.28219867  0.35684408    -0.02800
C309        C  0.06357989  0.26748240  0.46037766     0.36500
C310        C  0.03985605  0.25738669  0.28914698     0.40100
C311        C  0.05072387  0.18679740  0.41709064     0.39300
C312        C  0.00992778  0.31081999  0.33552595     0.36200
C313        C  0.06647986  0.38765025  0.39034748     0.36900
C314        C  0.99099003  0.31770398  0.03710608     0.40100
N315        N  0.05433961  0.15885602  0.43440965    -0.38000
N316        N  0.07946688  0.27614886  0.49322578    -0.39500
N317        N  0.04549079  0.25894512  0.25408262    -0.37300
N318        N  0.00029309  0.33501072  0.31878466    -0.39700
N319        N  0.95320994  0.21019946  0.48344784    -0.39500
N320        N  0.98944132  0.30904954  0.07157820    -0.37100
N321        N  0.99955143  0.44440794  0.40071454    -0.38100
N322        N  0.09571031  0.40916770  0.36811647    -0.39800
C323        C  0.22029519  0.23108341  0.42176137    -0.04700
C324        C  0.25594762  0.27391579  0.40750516     0.09400
C325        C  0.25359769  0.28620539  0.36641868    -0.02100
C326        C  0.21550722  0.25753414  0.34094706    -0.00400
C327        C  0.17994777  0.21510840  0.35525914    -0.04000
C328        C  0.18320919  0.20133815  0.39538951     0.03000
C329        C  0.29427839  0.30755502  0.43607280     0.09900
C330        C  0.28732433  0.33108793  0.35150554     0.35800
C331        C  0.14686686  0.15766857  0.41040137     0.39200
C332        C  0.32602045  0.29634585  0.45244556    -0.04400
C333        C  0.36401299  0.32958405  0.47601472     0.02800
C334        C  0.37005599  0.37389472  0.48467818    -0.04000
C335        C  0.33766641  0.38468734  0.46988345    -0.00200
C336        C  0.29968587  0.35156995  0.44620066    -0.02800
C337        C  0.31838084  0.24979772  0.44740305     0.36500
C338        C  0.34320480  0.43051752  0.97946872     0.40100
C339        C  0.39737998  0.31843450  0.49112588     0.39300
C340        C  0.26562999  0.36257424  0.43294657     0.36200
C341        C  0.21950008  0.21933132  0.46458632     0.36900
C342        C  0.21031134  0.27410331  0.30140658     0.40100
N343        N  0.42418806  0.30976601  0.50304403    -0.38000
N344        N  0.31120169  0.21206402  0.44557635    -0.39500
N345        N  0.34795242  0.46658072  0.98760022    -0.37300
N346        N  0.23866280  0.37147802  0.42201591    -0.39700
N347        N  0.31196975  0.36765996  0.33938694    -0.39500
N348        N  0.20544273  0.28747717  0.27029774    -0.37100
N349        N  0.11822108  0.12248062  0.42211597    -0.38100
N350        N  0.21871959  0.20984079  0.49873975    -0.39800
C351        C  0.35003868  0.25986431  0.30991467    -0.04700
C352        C  0.33577791  0.27462399  0.27548595     0.09400
C353        C  0.28938741  0.24890279  0.26305474    -0.02100
C354        C  0.25871627  0.20665821  0.28212806    -0.00400
C355        C  0.27353106  0.18997614  0.31495013    -0.04000
C356        C  0.31952097  0.21777534  0.32912346     0.03000
C357        C  0.37014247  0.31085081  0.24727566     0.09900
C358        C  0.27421759  0.26395889  0.22783678     0.35800
C359        C  0.33780052  0.20020410  0.35967064     0.39200
C360        C  0.37771112  0.29648235  0.20846911    -0.04400
C361        C  0.40624804  0.32952881  0.17982849     0.02800
C362        C  0.42523211  0.37774181  0.18818946    -0.04000
C363        C  0.41841497  0.39209096  0.22732819    -0.00200
C364        C  0.39384972  0.35894588  0.25757051    -0.02800
C365        C  0.35578174  0.24728291  0.19784789     0.36500
C366        C  0.43504401  0.44087670  0.23616260     0.40100
C367        C  0.41494845  0.31362916  0.14106541     0.39300
C368        C  0.39648335  0.37484175  0.29967555     0.36200
C369        C  0.39728525  0.28582964  0.32351261     0.36900
C370        C  0.21382403  0.17758079  0.26393247     0.40100
N371        N  0.42151831  0.30081545  0.11006261    -0.38000
N372        N  0.33775739  0.20804438  0.18938411    -0.39500
N373        N  0.44830180  0.47981093  0.24314268    -0.37300
N374        N  0.40179362  0.38873749  0.33330043    -0.39700
N375        N  0.26246254  0.27596071  0.19951867    -0.39500
N376        N  0.17854783  0.15464823  0.24823960    -0.37100
N377        N  0.35385188  0.18656861  0.38293856    -0.38100
N378        N  0.43484754  0.30667215  0.33469227    -0.39800
C379        C  0.37883048  0.04550565  0.19337129    -0.04700
C380        C  0.36453080  0.02213114  0.23102903     0.09400
C381        C  0.37976835  0.99154285  0.24220898    -0.02100
C382        C  0.40281677  0.97908343  0.21373635    -0.00400
C383        C  0.41314403  0.99905276  0.17452917    -0.04000
C384        C  0.40289117  0.03384981  0.16513264     0.03000
C385        C  0.33124117  0.02748085  0.25733663     0.09900
C386        C  0.37455336  0.97509958  0.28374977     0.35800
C387        C  0.41681874  0.05723985  0.12627992     0.39200
C388        C  0.28633074  0.01073592  0.24252313    -0.04400
C389        C  0.25628673  0.01987354  0.26488134     0.02800
C390        C  0.26927662  0.04209856  0.30410399    -0.04000
C391        C  0.31254241  0.05452604  0.32055650    -0.00200
C392        C  0.34431024  0.05004208  0.29633016    -0.02800
C393        C  0.27184695  0.98627621  0.20303528     0.36500
C394        C  0.32493459  0.07442057  0.36182032     0.40100
C395        C  0.21385518  0.01032571  0.24567005     0.39300
C396        C  0.39148122  0.07234463  0.30975699     0.36200
C397        C  0.36984673  0.08246515  0.18431362     0.36900
C398        C  0.41466791  0.94446789  0.22439693     0.40100
N399        N  0.18025546  0.00296040  0.22989027    -0.38000
N400        N  0.26055317  0.96697584  0.17144359    -0.39500
N401        N  0.33408092  0.08957117  0.39506019    -0.37300
N402        N  0.42934678  0.09032764  0.31989147    -0.39700
N403        N  0.37331864  0.96403158  0.31740720    -0.39500
N404        N  0.42406824  0.91681234  0.23276976    -0.37100
N405        N  0.42805117  0.07581301  0.09522833    -0.38100
N406        N  0.36313881  0.11233489  0.17731532    -0.39800
C407        C  0.61775149  0.92565738  0.45823262    -0.04700
C408        C  0.61981505  0.88618504  0.44538206     0.09400
C409        C  0.58742204  0.84219550  0.46042073    -0.02100
C410        C  0.55260130  0.83753053  0.48666094    -0.00400
C411        C  0.55108122  0.87713249  0.49958986    -0.04000
C412        C  0.58461700  0.92131451  0.48619536     0.03000
C413        C  0.65602385  0.89091349  0.41630266     0.09900
C414        C  0.59008142  0.80163334  0.44931011     0.35800
C415        C  0.58499828  0.96263267  0.50138589     0.39200
C416        C  0.70090929  0.90737969  0.43081209    -0.04400
C417        C  0.73423841  0.90935295  0.40395558     0.02800
C418        C  0.72358797  0.89653652  0.36187160    -0.04000
C419        C  0.67928659  0.88245801  0.34707018    -0.00200
C420        C  0.64530826  0.87788359  0.37434762    -0.02800
C421        C  0.71206296  0.91975628  0.47400884     0.36500
C422        C  0.66823253  0.87045986  0.30380091     0.40100
C423        C  0.77866864  0.92139548  0.42021685     0.39300
C424        C  0.59879673  0.85807050  0.35950375     0.36200
C425        C  0.64836421  0.97086484  0.44183409     0.36900
C426        C  0.51839643  0.79208031  0.50036140     0.40100
N427        N  0.81403354  0.93064080  0.43314580    -0.38000
N428        N  0.72080303  0.92954905  0.50851824    -0.39500
N429        N  0.65962564  0.86127074  0.26919937    -0.37300
N430        N  0.56163322  0.84204306  0.34773641    -0.39700
N431        N  0.59189889  0.76886149  0.44112347    -0.39500
N432        N  0.49121084  0.75578415  0.51138632    -0.37100
N433        N  0.58355003  0.99397277  0.01279657    -0.38100
N434        N  0.67121045  0.00768033  0.42926735    -0.39800
C435        C  0.66972174  0.68613759  0.33261521    -0.04700
C436        C  0.68135478  0.67605096  0.37122774     0.09400
C437        C  0.72408854  0.70798251  0.38946134    -0.02100
C438        C  0.75343495  0.75064971  0.37044368    -0.00400
C439        C  0.73907717  0.76321283  0.33442655    -0.04000
C440        C  0.69632354  0.73071339  0.31625432     0.03000
C441        C  0.64513950  0.63787799  0.39638405     0.09900
C442        C  0.73641808  0.69866009  0.42946231     0.35800
C443        C  0.67488460  0.74616044  0.28690955     0.39200
C444        C  0.64762070  0.59844987  0.40745030    -0.04400
C445        C  0.61617719  0.56623621  0.43507509     0.02800
C446        C  0.58287315  0.57376711  0.45274908    -0.04000
C447        C  0.57840514  0.61132120  0.43986120    -0.00200
C448        C  0.60879572  0.64267874  0.41123176    -0.02800
C449        C  0.68223453  0.59051077  0.39074218     0.36500
C450        C  0.54346906  0.61852132  0.45726906     0.40100
C451        C  0.61897439  0.52621093  0.94505953     0.39300
C452        C  0.60236884  0.67970058  0.39656941     0.36200
C453        C  0.62772279  0.65220153  0.31180841     0.36900
C454        C  0.79554459  0.78431449  0.39119603     0.40100
N455        N  0.62057923  0.49355939  0.95349891    -0.38000
N456        N  0.70903955  0.58237695  0.37812811    -0.39500
N457        N  0.51565507  0.62424881  0.47132248    -0.37300
N458        N  0.59705977  0.70842500  0.38302223    -0.39700
N459        N  0.74632487  0.69131155  0.46138453    -0.39500
N460        N  0.82882634  0.81123071  0.40814382    -0.37100
N461        N  0.65623113  0.75892466  0.26575576    -0.38100
N462        N  0.59428114  0.62517209  0.29515740    -0.39800
C463        C  0.78962757  0.73372948  0.22020230    -0.04700
C464        C  0.75237611  0.69079553  0.23221526     0.09400
C465        C  0.75222235  0.67562466  0.27255877    -0.02100
C466        C  0.78942274  0.70180602  0.29985831    -0.00400
C467        C  0.82652147  0.74497326  0.28818660    -0.04000
C468        C  0.82628012  0.76082704  0.24817061     0.03000
C469        C  0.71441770  0.65900365  0.20246249     0.09900
C470        C  0.71438214  0.63149340  0.28497239     0.35800
C471        C  0.86569901  0.80311333  0.23466627     0.39200
C472        C  0.70975540  0.61612160  0.18959627    -0.04400
C473        C  0.66981835  0.58186262  0.16892669     0.02800
C474        C  0.63367347  0.58982728  0.16103476    -0.04000
C475        C  0.63935573  0.63376983  0.17178793    -0.00200
C476        C  0.68030059  0.66873957  0.19072778    -0.02800
C477        C  0.74723787  0.60820824  0.19567488     0.36500
C478        C  0.60382012  0.64374186  0.16147371     0.40100
C479        C  0.66633796  0.53873732  0.15484805     0.39300
C480        C  0.68950734  0.71599008  0.19353478     0.36200
C481        C  0.79179543  0.74856659  0.17827269     0.36900
C482        C  0.79187857  0.68253995  0.33877020     0.40100
N483        N  0.66345281  0.50427022  0.14366742    -0.38000
N484        N  0.77717095  0.60167440  0.19955129    -0.39500
N485        N  0.57559147  0.65177179  0.15294336    -0.37300
N486        N  0.69806309  0.75421806  0.19329712    -0.39700
N487        N  0.68357645  0.59599490  0.29338812    -0.39500
N488        N  0.79568260  0.66807405  0.36967072    -0.37100
N489        N  0.89738464  0.83677837  0.22409360    -0.38100
N490        N  0.79354438  0.76050068  0.14480723    -0.39800
C491        C  0.99229778  0.61688785  0.23248288    -0.04700
C492        C  0.95594290  0.62256604  0.24518330     0.09400
C493        C  0.91245818  0.59427359  0.22647275    -0.02100
C494        C  0.90578673  0.56160595  0.19501533    -0.00400
C495        C  0.94271597  0.55759720  0.18150112    -0.04000
C496        C  0.98580523  0.58494670  0.20059424     0.03000
C497        C  0.96384160  0.66151426  0.27444808     0.09900
C498        C  0.87469551  0.59913698  0.23966454     0.35800
C499        C  0.02362218  0.58000374  0.18725288     0.39200
C500        C  0.98485360  0.70720485  0.25979983    -0.04400
C501        C  0.97830007  0.74084431  0.28011255     0.02800
C502        C  0.95776475  0.73192552  0.31922006    -0.04000
C503        C  0.94341783  0.68843076  0.33691680    -0.00200
C504        C  0.94351388  0.65242179  0.31353585    -0.02800
C505        C  0.00918683  0.71841945  0.22145619     0.36500
C506        C  0.92257718  0.67884899  0.37689989     0.40100
C507        C  0.98538721  0.78089770  0.25723993     0.39300
C508        C  0.91817519  0.60514796  0.32776104     0.36200
C509        C  0.03673376  0.64375823  0.25176724     0.36900
C510        C  0.86114176  0.53224649  0.17636253     0.40100
N511        N  0.99054461  0.81243818  0.23870214    -0.38000
N512        N  0.02928137  0.72763096  0.19126811    -0.39500
N513        N  0.90594620  0.67124084  0.40880745    -0.37300
N514        N  0.89734119  0.56738599  0.33895954    -0.39700
N515        N  0.84518759  0.60333523  0.25161410    -0.39500
N516        N  0.82554198  0.50862202  0.16144847    -0.37100
N517        N  0.05356958  0.57584473  0.17647660    -0.38100
N518        N  0.07298113  0.66397761  0.26598692    -0.39800
C519        C  0.93312351  0.82737217  0.85521294     0.03900
C520        C  0.89060113  0.80919511  0.83384926    -0.12300
C521        C  0.87002232  0.76581874  0.81270563     0.01400
C522        C  0.89239637  0.74107604  0.81195586    -0.10800
C523        C  0.93396604  0.75753040  0.83204775     0.03800
C524        C  0.95293652  0.79923726  0.85615031    -0.10200
H525        H  0.87465855  0.82982826  0.83267903     0.09400
H526        H  0.87806719  0.70911771  0.79354806     0.07000
H527        H  0.98436234  0.81168124  0.87263602     0.06800
C528        C  0.82022489  0.89167705  0.80461170     0.03900
C529        C  0.80155171  0.84283151  0.80661573    -0.12300
C530        C  0.75852186  0.81406499  0.82415394     0.01400
C531        C  0.73444460  0.83398698  0.83943473    -0.10800
C532        C  0.75056211  0.88110994  0.83700884     0.03800
C533        C  0.79281166  0.90988963  0.81837564    -0.10200
H534        H  0.82086074  0.82760229  0.79601842     0.09400
H535        H  0.70286700  0.81230605  0.85520945     0.07000
H536        H  0.80471179  0.94621030  0.81574841     0.06800
C537        C  0.17905324  0.06635196  0.85066421     0.03900
C538        C  0.20250796  0.04272409  0.84120021    -0.12300
C539        C  0.24479902  0.06496355  0.82168090     0.01400
C540        C  0.26564903  0.11210487  0.81433252    -0.10800
C541        C  0.24612093  0.13826127  0.82580935     0.03800
C542        C  0.20177883  0.11488550  0.84264211    -0.10200
H543        H  0.18662405  0.00655699  0.84696763     0.09400
H544        H  0.29770733  0.12874061  0.79841123     0.07000
H545        H  0.18473330  0.13389470  0.84801342     0.06800
N546        N  0.56309377  0.53944797  0.56388103    -0.35900
N547        N  0.51741284  0.48430559  0.63569325    -0.56400
N548        N  0.44165421  0.42138686  0.58143644    -0.35900
N549        N  0.48534177  0.47848893  0.51065651    -0.56400
C550        C  0.59292011  0.56696894  0.59385425     0.27700
C551        C  0.57690305  0.56243988  0.52815661     0.27700
C552        C  0.42392816  0.40675484  0.61903653     0.27700
C553        C  0.40641922  0.40430956  0.55398671     0.27700
C554        C  0.55868313  0.51361518  0.65318259     0.36300
C555        C  0.49507912  0.44850994  0.66149969     0.36300
C556        C  0.51405168  0.50549469  0.98017985     0.36300
C557        C  0.44874276  0.44370882  0.98989683     0.36300
C558        C  0.62642496  0.60766174  0.57661393    -0.21200
C559        C  0.61631037  0.60483367  0.53545565    -0.21200
C560        C  0.37691091  0.38048162  0.61537720    -0.21200
C561        C  0.36592985  0.37863357  0.57435326    -0.21200
C562        C  0.56222432  0.49679108  0.69086697    -0.22200
C563        C  0.52246894  0.45509856  0.69566536    -0.22200
C564        C  0.49477008  0.48805242  0.94157426    -0.22200
C565        C  0.45339827  0.44879421  0.94772965    -0.22200
C566        C  0.59301613  0.55547775  0.63575602    -0.17600
C567        C  0.55664480  0.54578445  0.48859102    -0.17600
C568        C  0.40983603  0.40839710  0.51071605    -0.17600
C569        C  0.44912650  0.41212419  0.65577806    -0.17600
H570        H  0.65603057  0.63623094  0.59168164     0.15300
H571        H  0.63636212  0.63092591  0.51332945     0.15300
H572        H  0.35301446  0.36330209  0.63965722     0.15300
H573        H  0.33197214  0.35999667  0.56096527     0.15300
H574        H  0.59073261  0.51244647  0.71240205     0.13600
H575        H  0.51436024  0.43277286  0.72178242     0.13600
H576        H  0.50902365  0.50212557  0.91206499     0.13600
H577        H  0.42933630  0.42681400  0.92392024     0.13600
H578        H  0.53725152  0.50547784  0.56693169     0.26900
H579        H  0.47572595  0.43619426  0.57424764     0.26900
C580        C  0.06615668  0.13179452  0.79846569     0.03900
C581        C  0.11151332  0.15090737  0.81346873    -0.12300
C582        C  0.13497528  0.19523103  0.83263979     0.01400
C583        C  0.11280584  0.21984157  0.83825655    -0.10800
C584        C  0.06708718  0.20026940  0.82816893     0.03800
C585        C  0.04480278  0.15804470  0.80477905    -0.10200
H586        H  0.12741496  0.13013541  0.81198468     0.09400
H587        H  0.13004091  0.25271590  0.85539608     0.07000
H588        H  0.01032880  0.14355765  0.79455710     0.06800
C589        C  0.08540613  0.89644837  0.80905610     0.03900
C590        C  0.13370602  0.92094082  0.81027145    -0.12300
C591        C  0.15801098  0.90158280  0.82859407     0.01400
C592        C  0.13453027  0.85599317  0.84092783    -0.10800
C593        C  0.08786850  0.82907500  0.83691759     0.03800
C594        C  0.06343005  0.84953647  0.82122798    -0.10200
H595        H  0.15137184  0.95634303  0.80096790     0.09400
H596        H  0.15303834  0.84166761  0.85612460     0.07000
H597        H  0.02750374  0.83070202  0.82157830     0.06800
C598        C  0.91478491  0.06332948  0.85131106     0.03900
C599        C  0.86664533  0.03674241  0.84967276    -0.12300
C600        C  0.84059053  0.05534032  0.83412870     0.01400
C601        C  0.86199397  0.10246765  0.82621775    -0.10800
C602        C  0.90899759  0.13023331  0.82742066     0.03800
C603        C  0.93518771  0.11129025  0.84247976    -0.10200
H604        H  0.85060538  0.00016212  0.85505721     0.09400
H605        H  0.84199841  0.11614430  0.81288528     0.07000
H606        H  0.97114869  0.13293414  0.84587851     0.06800
N607        N  0.96904415  0.52658848  0.58089509    -0.35900
N608        N  0.92185246  0.44623780  0.63285980    -0.56400
N609        N  0.94711914  0.39706810  0.57385354    -0.35900
N610        N  0.98885516  0.47428753  0.52075480    -0.56400
C611        C  0.94937632  0.54137419  0.60832130     0.27700
C612        C  0.98059788  0.55451483  0.54805576     0.27700
C613        C  0.91445858  0.36336794  0.59643801     0.27700
C614        C  0.94738385  0.37778112  0.53703222     0.27700
C615        C  0.92806980  0.48016907  0.65985440     0.36300
C616        C  0.91564643  0.41004919  0.65560825     0.36300
C617        C  0.01679227  0.51739113  0.00967925     0.36300
C618        C  0.00749839  0.44815660  0.00797928     0.36300
C619        C  0.94835289  0.57924875  0.59290067    -0.21200
C620        C  0.96729592  0.58703382  0.55446051    -0.21200
C621        C  0.89259243  0.32222861  0.57366746    -0.21200
C622        C  0.91223020  0.33174664  0.53541137    -0.21200
C623        C  0.92366595  0.46472314  0.69979526    -0.22200
C624        C  0.91604975  0.42020797  0.69708694    -0.22200
C625        C  0.05410350  0.52100185  0.98997053    -0.22200
C626        C  0.04906726  0.47730114  0.99025018    -0.22200
C627        C  0.93779957  0.52490134  0.64870513    -0.17600
C628        C  0.00745688  0.55438966  0.51512300    -0.17600
C629        C  0.98343783  0.39972381  0.50878526    -0.17600
C630        C  0.90996037  0.36822815  0.63885957    -0.17600
H631        H  0.93606535  0.59966575  0.60812995     0.15300
H632        H  0.97263680  0.61486929  0.53446558     0.15300
H633        H  0.86614372  0.28875988  0.58392564     0.15300
H634        H  0.90389816  0.30673512  0.51045362     0.15300
H635        H  0.92655070  0.48383462  0.72793978     0.13600
H636        H  0.91169723  0.39804104  0.72262066     0.13600
H637        H  0.08205532  0.55190101  0.97720209     0.13600
H638        H  0.07243588  0.46783595  0.97742018     0.13600
H639        H  0.97953928  0.50295070  0.58689618     0.26900
H640        H  0.97258954  0.42921718  0.58560894     0.26900
N641        N  0.42043843  0.93894795  0.57865571    -0.35900
N642        N  0.49086926  0.96090851  0.64103194    -0.56400
N643        N  0.52183347  0.91295217  0.59140406    -0.35900
N644        N  0.44926054  0.88582250  0.52924437    -0.56400
C645        C  0.40542587  0.95339835  0.61073187     0.27700
C646        C  0.38557056  0.91690818  0.55118719     0.27700
C647        C  0.54046208  0.91446776  0.62872283     0.27700
C648        C  0.52175790  0.87875548  0.56883010     0.27700
C649        C  0.47766439  0.99154991  0.65055937     0.36300
C650        C  0.53340306  0.97849463  0.65661743     0.36300
C651        C  0.42344177  0.89198229  0.50116691     0.36300
C652        C  0.47879738  0.87725221  0.00772102     0.36300
C653        C  0.36017171  0.93983307  0.60376329    -0.21200
C654        C  0.34787133  0.91743047  0.56579628    -0.21200
C655        C  0.54972849  0.87857195  0.63061819    -0.21200
C656        C  0.53949534  0.85715194  0.59211469    -0.21200
C657        C  0.51188024  0.02923364  0.67232704    -0.22200
C658        C  0.54800961  0.02175423  0.67490705    -0.22200
C659        C  0.43467718  0.88438335  0.96168232    -0.22200
C660        C  0.47050301  0.87673472  0.96588294    -0.22200
C661        C  0.43309473  0.98239208  0.64380754    -0.17600
C662        C  0.38943268  0.90252337  0.51112307    -0.17600
C663        C  0.51396670  0.87370723  0.52603879    -0.17600
C664        C  0.55583005  0.95257842  0.65711706    -0.17600
H665        H  0.33882133  0.94711403  0.62309239     0.15300
H666        H  0.31529208  0.90405711  0.55024448     0.15300
H667        H  0.56570381  0.87112425  0.65588115     0.15300
H668        H  0.54583319  0.82998496  0.58206510     0.15300
H669        H  0.51078631  0.05882094  0.68491108     0.13600
H670        H  0.58051457  0.04472704  0.68983104     0.13600
H671        H  0.41993844  0.88696616  0.93296861     0.13600
H672        H  0.48871097  0.87193069  0.94107223     0.13600
H673        H  0.45411688  0.94895493  0.57321124     0.26900
H674        H  0.51698684  0.93883279  0.57921769     0.26900
O675        O  0.99117473  0.89829907  0.89426766    -0.80200
O676        O  0.04861396  0.05696644  0.81313749    -0.64900
O677        O  0.02166862  0.98856476  0.86102705    -1.11500
C678        C  0.87110908  0.92384748  0.80206767     1.06700
O679        O  0.00818957  0.06070481  0.76093444    -0.78100
O680        O  0.92931583  0.02567049  0.79939670    -0.65600
Ni681      Ni  0.04743845  0.96138923  0.89455923     1.34900
C682        C  0.93739754  0.03710667  0.83685322     0.85500
O683        O  0.10596641  0.02699199  0.82000650    -0.78600
O684        O  0.10752286  0.01999142  0.88897131    -0.88900
C685        C  0.03912127  0.08036694  0.78942437     0.85000
O686        O  0.07171075  0.93636817  0.85839689    -0.67100
O687        O  0.89155262  0.94087284  0.76770275    -0.86400
C688        C  0.06392800  0.92449183  0.82119129     0.85900
C689        C  0.12782217  0.03723383  0.85441241     1.07400
H690        H  0.96717623  0.94143515  0.78211126     0.39200
O691        O  0.97715917  0.97110525  0.79574711    -1.09000
O692        O  0.95932184  0.02313922  0.85938502    -0.65700
Ni693      Ni  0.95677129  0.96237328  0.85086466     1.26300
O694        O  0.04131203  0.93742459  0.79811355    -0.65900
O695        O  0.89272961  0.93431223  0.83670489    -0.78200
C696        C  0.95953235  0.87888019  0.86613227     0.85200
O697        O  0.94896168  0.90262118  0.84390020    -0.65400
Ni698      Ni  0.95158409  0.99879768  0.76218012     1.27400
Ni699      Ni  0.04209065  0.99775765  0.80605826     1.26600
H700        H  0.03170870  0.01817665  0.87476110     0.39800
C701        C  0.63967935  0.00135606  0.74987000    -0.04700
C702        C  0.67316075  0.99017504  0.73906104     0.09400
C703        C  0.66706712  0.96663668  0.70071378    -0.02100
C704        C  0.63422459  0.96313104  0.67208774    -0.00400
C705        C  0.59630793  0.96584288  0.68579826    -0.04000
C706        C  0.59835290  0.98164259  0.72704560     0.03000
C707        C  0.71538252  0.00454848  0.76571810     0.09900
C708        C  0.69407202  0.94577566  0.69018877     0.35800
C709        C  0.55836304  0.97613397  0.74727139     0.39200
C710        C  0.71367143  0.99733980  0.80893324    -0.04400
C711        C  0.75441571  0.01206531  0.83225778     0.02800
C712        C  0.79570088  0.02683054  0.81220036    -0.04000
C713        C  0.79579842  0.02820504  0.76891124    -0.00200
C714        C  0.75829665  0.02413711  0.74706322    -0.02800
C715        C  0.67067048  0.97667595  0.82954208     0.36500
C716        C  0.83518966  0.03512100  0.74673052     0.40100
C717        C  0.75502792  0.01433417  0.87668242     0.39300
C718        C  0.76526754  0.04381628  0.70645144     0.36200
C719        C  0.64868529  0.03620816  0.78147968     0.36900
C720        C  0.64186833  0.96009043  0.62863318     0.40100
N721        N  0.75764862  0.01740789  0.91218988    -0.38000
N722        N  0.63572693  0.96102337  0.84500789    -0.39500
N723        N  0.86560360  0.03873025  0.72844132    -0.37300
N724        N  0.77096608  0.05984912  0.67423990    -0.39700
N725        N  0.71552820  0.92907135  0.68172070    -0.39500
N726        N  0.64827580  0.95809229  0.59399148    -0.37100
N727        N  0.52666355  0.97169500  0.76391497    -0.38100
N728        N  0.65586804  0.06452352  0.80622923    -0.39800
C729        C  0.87818404  0.26537595  0.70908089    -0.04700
C730        C  0.92167601  0.27443857  0.72228884     0.09400
C731        C  0.96069453  0.31404894  0.70739034    -0.02100
C732        C  0.95626824  0.34355293  0.67958740    -0.00400
C733        C  0.91291661  0.33473887  0.66692599    -0.04000
C734        C  0.87385977  0.29592036  0.68217444     0.03000
C735        C  0.92594661  0.24180374  0.75123250     0.09900
C736        C  0.00588040  0.32596856  0.72088645     0.35800
C737        C  0.82936067  0.28789965  0.67057330     0.39200
C738        C  0.93835400  0.20997880  0.73628130    -0.04400
C739        C  0.93830255  0.17640211  0.76249926     0.02800
C740        C  0.92694361  0.17486635  0.80458081    -0.04000
C741        C  0.91716862  0.20868274  0.81979701    -0.00200
C742        C  0.91507309  0.24070453  0.79315586    -0.02800
C743        C  0.94882917  0.21023347  0.69311888     0.36500
C744        C  0.90758130  0.20926601  0.86300834     0.40100
C745        C  0.94833739  0.14251803  0.74516701     0.39300
C746        C  0.90071106  0.27200705  0.80881886     0.36200
C747        C  0.83783745  0.22420548  0.72287753     0.36900
C748        C  0.99667264  0.38390409  0.66435552     0.40100
N749        N  0.95729092  0.11659747  0.73019613    -0.38000
N750        N  0.95715836  0.21065238  0.65867883    -0.39500
N751        N  0.90022670  0.20986081  0.89756516    -0.37300
N752        N  0.88940275  0.29709430  0.82134086    -0.39700
N753        N  0.04310247  0.33845366  0.73043175    -0.39500
N754        N  0.02869653  0.41611143  0.65216716    -0.37100
N755        N  0.79387647  0.28175570  0.66141807    -0.38100
N756        N  0.80576776  0.19123588  0.73395075    -0.39800
C757        C  0.25504189  0.94930671  0.90491321    -0.04700
C758        C  0.27788302  0.92718946  0.88922312     0.09400
C759        C  0.26756917  0.90857115  0.84860960    -0.02100
C760        C  0.23499951  0.91215014  0.82425932    -0.00400
C761        C  0.20681584  0.92696070  0.84228732    -0.04000
C762        C  0.21771737  0.94630479  0.88285126     0.03000
C763        C  0.30839487  0.91890392  0.91732946     0.09900
C764        C  0.28656586  0.88116524  0.83336179     0.35800
C765        C  0.18638327  0.95584184  0.90466975     0.39200
C766        C  0.29248444  0.87455257  0.93433258    -0.04400
C767        C  0.31925341  0.86782096  0.96384682     0.02800
C768        C  0.36164697  0.90549253  0.97720484    -0.04000
C769        C  0.37779134  0.94942929  0.95989871    -0.00200
C770        C  0.35174189  0.95590970  0.92971716    -0.02800
C771        C  0.24804833  0.83606349  0.92216305     0.36500
C772        C  0.42097322  0.98848474  0.97426285     0.40100
C773        C  0.30339474  0.82419854  0.48151826     0.39300
C774        C  0.36986484  0.00113278  0.91198167     0.36200
C775        C  0.26686039  0.97096239  0.94565901     0.36900
C776        C  0.22512340  0.89340031  0.78247400     0.40100
N777        N  0.29041373  0.78805912  0.49547660    -0.38000
N778        N  0.21303204  0.80670691  0.41259424    -0.39500
N779        N  0.45523494  0.01940427  0.98621708    -0.37300
N780        N  0.38603748  0.03792299  0.89876145    -0.39700
N781        N  0.30116105  0.85870475  0.82133567    -0.39500
N782        N  0.21699874  0.87832159  0.74918180    -0.37100
N783        N  0.16134749  0.96310888  0.92240288    -0.38100
N784        N  0.27665663  0.98866002  0.97797716    -0.39800
C785        C  0.01937650  0.61837595  0.91596021    -0.04700
C786        C  0.04694383  0.66514562  0.92958802     0.09400
C787        C  0.06752115  0.67428440  0.96927457    -0.02100
C788        C  0.05649536  0.63749884  0.99633866    -0.00400
C789        C  0.02397496  0.59138290  0.98442950    -0.04000
C790        C  0.00645472  0.58186025  0.94366277     0.03000
C791        C  0.05294380  0.70461589  0.90316409     0.09900
C792        C  0.10069880  0.72155540  0.98197298     0.35800
C793        C  0.97379910  0.53456580  0.93043569     0.39200
C794        C  0.03683724  0.73409490  0.91658185    -0.04400
C795        C  0.04789485  0.77478444  0.89502264     0.02800
C796        C  0.06763830  0.78218398  0.85581961    -0.04000
C797        C  0.08158096  0.75113047  0.84134517    -0.00200
C798        C  0.07730765  0.71487544  0.86631108    -0.02800
C799        C  0.01138815  0.72426899  0.95417402     0.36500
C800        C  0.10558829  0.76035741  0.80291357     0.40100
C801        C  0.04626588  0.81227679  0.91642885     0.39300
C802        C  0.10222924  0.69156781  0.85662132     0.36200
C803        C  0.00660888  0.60719737  0.87297923     0.36900
C804        C  0.07934043  0.64823826  0.53641926     0.40100
N805        N  0.04597996  0.84258186  0.93388600    -0.38000
N806        N  0.99115003  0.71637540  0.98420866    -0.39500
N807        N  0.12519850  0.76863931  0.77248160    -0.37300
N808        N  0.12245949  0.67315969  0.84953335    -0.39700
N809        N  0.12716019  0.75929974  0.99207169    -0.39500
N810        N  0.09678216  0.65553821  0.56854346    -0.37100
N811        N  0.94752017  0.49698945  0.91973468    -0.38100
N812        N  0.99829352  0.59719318  0.83849231    -0.39800
C813        C  0.03042459  0.36115497  0.91783155    -0.04700
C814        C  0.01784560  0.31490541  0.92704715     0.09400
C815        C  0.99507937  0.29771948  0.96476300    -0.02100
C816        C  0.99321085  0.32847414  0.99383460    -0.00400
C817        C  0.99620489  0.37022435  0.98057222    -0.04000
C818        C  0.01124966  0.38355563  0.93980845     0.03000
C819        C  0.02949136  0.28515907  0.89931968     0.09900
C820        C  0.97266960  0.24874198  0.97411341     0.35800
C821        C  0.00436141  0.41728350  0.91853272     0.39200
C822        C  0.04500006  0.25728418  0.91737385    -0.04400
C823        C  0.04576643  0.22182118  0.89423691     0.02800
C824        C  0.04409086  0.22170745  0.85082862    -0.04000
C825        C  0.03519905  0.25366772  0.83164529    -0.00200
C826        C  0.02451711  0.28281334  0.85544994    -0.02800
C827        C  0.06494941  0.26803455  0.95860882     0.36500
C828        C  0.04044867  0.25803553  0.78760811     0.40100
C829        C  0.05125617  0.18699639  0.91525988     0.39300
C830        C  0.01098764  0.31167562  0.83422238     0.36200
C831        C  0.06659723  0.38815044  0.88967848     0.36900
C832        C  0.99042185  0.31881185  0.53797113     0.40100
N833        N  0.05471401  0.15892299  0.93250979    -0.38000
N834        N  0.08120140  0.27684140  0.99131582    -0.39500
N835        N  0.04605746  0.25963197  0.75253978    -0.37300
N836        N  0.00156837  0.33600176  0.81742788    -0.39700
N837        N  0.95457670  0.20973698  0.98184130    -0.39500
N838        N  0.98887902  0.31053570  0.57253661    -0.37100
N839        N  0.99869627  0.44381669  0.90096243    -0.38100
N840        N  0.09578164  0.41008684  0.86753959    -0.39800
C841        C  0.22028242  0.23232181  0.92021897    -0.04700
C842        C  0.25579218  0.27530828  0.90609516     0.09400
C843        C  0.25343800  0.28769971  0.86504281    -0.02100
C844        C  0.21573145  0.25861295  0.83929961    -0.00400
C845        C  0.18038307  0.21591133  0.85344176    -0.04000
C846        C  0.18352231  0.20230544  0.89367332     0.03000
C847        C  0.29416958  0.30875234  0.93471820     0.09900
C848        C  0.28658361  0.33303115  0.85046310     0.35800
C849        C  0.14731842  0.15852107  0.90864285     0.39200
C850        C  0.32589801  0.29734573  0.95076384    -0.04400
C851        C  0.36407371  0.33041041  0.97421867     0.02800
C852        C  0.37006762  0.37457279  0.98349313    -0.04000
C853        C  0.33751627  0.38544066  0.96929978    -0.00200
C854        C  0.29955707  0.35263110  0.94539211    -0.02800
C855        C  0.31784436  0.25063700  0.94584876     0.36500
C856        C  0.34363116  0.43007933  0.47905712     0.40100
C857        C  0.39762091  0.31918868  0.98865388     0.39300
C858        C  0.26541319  0.36371369  0.93263822     0.36200
C859        C  0.21921344  0.22071201  0.96311811     0.36900
C860        C  0.21057122  0.27503273  0.79966584     0.40100
N861        N  0.42457594  0.31045781  0.00000310    -0.38000
N862        N  0.31022474  0.21274371  0.94429275    -0.39500
N863        N  0.34864224  0.46642578  0.48630796    -0.37300
N864        N  0.23836861  0.37269636  0.92214205    -0.39700
N865        N  0.31069069  0.36989731  0.83861172    -0.39500
N866        N  0.20571923  0.28831597  0.76849955    -0.37100
N867        N  0.11882599  0.12321707  0.92030613    -0.38100
N868        N  0.21819746  0.21135667  0.99733608    -0.39800
C869        C  0.34923814  0.25897388  0.81034205    -0.04700
C870        C  0.33513042  0.27369875  0.77577422     0.09400
C871        C  0.28885085  0.24784487  0.76301739    -0.02100
C872        C  0.25817878  0.20549481  0.78189557    -0.00400
C873        C  0.27286110  0.18892667  0.81489734    -0.04000
C874        C  0.31872773  0.21675026  0.82932103     0.03000
C875        C  0.36961709  0.31011036  0.74780506     0.09900
C876        C  0.27384423  0.26288415  0.72767227     0.35800
C877        C  0.33691315  0.19903854  0.85984251     0.39200
C878        C  0.37743313  0.29602340  0.70896290    -0.04400
C879        C  0.40623746  0.32928743  0.68061320     0.02800
C880        C  0.42508347  0.37742740  0.68920981    -0.04000
C881        C  0.41802315  0.39150685  0.72837407    -0.00200
C882        C  0.39316972  0.35813153  0.75836743    -0.02800
C883        C  0.35524025  0.24692136  0.69785831     0.36500
C884        C  0.43460055  0.44023275  0.73743548     0.40100
C885        C  0.41532728  0.31369923  0.64187087     0.39300
C886        C  0.39500810  0.37368395  0.80047343     0.36200
C887        C  0.39631084  0.28517173  0.82441185     0.36900
C888        C  0.21358527  0.17611398  0.76322399     0.40100
N889        N  0.42223545  0.30113668  0.61089531    -0.38000
N890        N  0.33690807  0.20778548  0.68892473    -0.39500
N891        N  0.44777181  0.47911504  0.74459600    -0.37300
N892        N  0.39956101  0.38717940  0.83417671    -0.39700
N893        N  0.26224491  0.27488507  0.69924860    -0.39500
N894        N  0.17859788  0.15286077  0.74713538    -0.37100
N895        N  0.35277322  0.18520605  0.88312052    -0.38100
N896        N  0.43370296  0.30620043  0.83604170    -0.39800
C897        C  0.37830942  0.04553976  0.69415939    -0.04700
C898        C  0.36402525  0.02198381  0.73172789     0.09400
C899        C  0.37947780  0.99156110  0.74285307    -0.02100
C900        C  0.40260535  0.97929567  0.71432825    -0.00400
C901        C  0.41294380  0.99945475  0.67520304    -0.04000
C902        C  0.40258004  0.03419447  0.66592115     0.03000
C903        C  0.33051106  0.02693740  0.75798284     0.09900
C904        C  0.37442021  0.97510595  0.78437995     0.35800
C905        C  0.41655946  0.05780376  0.62717089     0.39200
C906        C  0.28567176  0.01020880  0.74297676    -0.04400
C907        C  0.25545698  0.01906806  0.76533593     0.02800
C908        C  0.26818508  0.04088146  0.80473945    -0.04000
C909        C  0.31133181  0.05317212  0.82136789    -0.00200
C910        C  0.34333118  0.04917615  0.79710964    -0.02800
C911        C  0.27151632  0.98626311  0.70323936     0.36500
C912        C  0.32344108  0.07264204  0.86278834     0.40100
C913        C  0.21317796  0.00976048  0.74594857     0.39300
C914        C  0.39051611  0.07188373  0.81056292     0.36200
C915        C  0.36899308  0.08228595  0.68515875     0.36900
C916        C  0.41442493  0.94461220  0.72482195     0.40100
N917        N  0.17970530  0.00258346  0.73003029    -0.38000
N918        N  0.26051842  0.96743743  0.67142745    -0.39500
N919        N  0.33237760  0.08747260  0.89613730    -0.37300
N920        N  0.42840609  0.09025856  0.82068438    -0.39700
N921        N  0.37334651  0.96404647  0.81801937    -0.39500
N922        N  0.42374721  0.91686897  0.73307428    -0.37100
N923        N  0.42783196  0.07656665  0.59620758    -0.38100
N924        N  0.36196041  0.11194503  0.67820181    -0.39800
C925        C  0.61767675  0.92509756  0.95807574    -0.04700
C926        C  0.62001774  0.88585478  0.94495578     0.09400
C927        C  0.58772262  0.84168268  0.95975386    -0.02100
C928        C  0.55274756  0.83663036  0.98602191    -0.00400
C929        C  0.55098404  0.87602000  0.99925446    -0.04000
C930        C  0.58427286  0.92034278  0.98591610     0.03000
C931        C  0.65615518  0.89096585  0.91554949     0.09900
C932        C  0.59067406  0.80135340  0.94834095     0.35800
C933        C  0.58387078  0.96136710  0.00075715     0.39200
C934        C  0.70120843  0.90764977  0.92970665    -0.04400
C935        C  0.73445301  0.91003854  0.90248971     0.02800
C936        C  0.72354565  0.89739048  0.86041161    -0.04000
C937        C  0.67914841  0.88334779  0.84593386    -0.00200
C938        C  0.64523266  0.87822502  0.87355703    -0.02800
C939        C  0.71261841  0.91966051  0.97291381     0.36500
C940        C  0.66800011  0.87213910  0.80257872     0.40100
C941        C  0.77908781  0.92227893  0.91834191     0.39300
C942        C  0.59858525  0.85811027  0.85900802     0.36200
C943        C  0.64831062  0.97053130  0.94210961     0.36900
C944        C  0.51841230  0.79096879  0.99916319     0.40100
N945        N  0.81464385  0.93168772  0.93087139    -0.38000
N946        N  0.72160933  0.92913268  0.00743618    -0.39500
N947        N  0.65932003  0.86367884  0.76790189    -0.37300
N948        N  0.56130579  0.84176553  0.84747758    -0.39700
N949        N  0.59285666  0.76885082  0.93985959    -0.39500
N950        N  0.49101710  0.75448634  0.00962489    -0.37100
N951        N  0.58541176  0.99549247  0.51381140    -0.38100
N952        N  0.67117211  0.00754952  0.92996072    -0.39800
C953        C  0.66916798  0.68645538  0.83146517    -0.04700
C954        C  0.68079143  0.67655026  0.87016401     0.09400
C955        C  0.72334047  0.70876208  0.88854133    -0.02100
C956        C  0.75267493  0.75133022  0.86938650    -0.00400
C957        C  0.73832016  0.76368079  0.83323621    -0.04000
C958        C  0.69553512  0.73108530  0.81516083     0.03000
C959        C  0.64471741  0.63816582  0.89521716     0.09900
C960        C  0.73543324  0.69986014  0.92883289     0.35800
C961        C  0.67375017  0.74646128  0.78611505     0.39200
C962        C  0.64783784  0.59917997  0.90662261    -0.04400
C963        C  0.61646736  0.56678045  0.93414016     0.02800
C964        C  0.58291040  0.57394769  0.95170095    -0.04000
C965        C  0.57789257  0.61109394  0.93862687    -0.00200
C966        C  0.60794781  0.64240204  0.90980076    -0.02800
C967        C  0.68311523  0.59191524  0.89055025     0.36500
C968        C  0.54269964  0.61790263  0.95600437     0.40100
C969        C  0.61837054  0.52549408  0.44597941     0.39300
C970        C  0.60067852  0.67872946  0.89469947     0.36200
C971        C  0.62734117  0.65231378  0.81054699     0.36900
C972        C  0.79474123  0.78511502  0.89012896     0.40100
N973        N  0.61976042  0.49272955  0.45443889    -0.38000
N974        N  0.71042401  0.58418003  0.87859272    -0.39500
N975        N  0.51468465  0.62331170  0.97004635    -0.37300
N976        N  0.59453215  0.70678762  0.88085963    -0.39700
N977        N  0.74509774  0.69284510  0.96100429    -0.39500
N978        N  0.82798986  0.81209849  0.90707960    -0.37100
N979        N  0.65485670  0.75916256  0.76519389    -0.38100
N980        N  0.59400975  0.62515232  0.79382700    -0.39800
C981        C  0.78991815  0.73275879  0.71974486    -0.04700
C982        C  0.75267499  0.69009376  0.73217111     0.09400
C983        C  0.75248089  0.67541866  0.77269864    -0.02100
C984        C  0.78956185  0.70208196  0.79996029    -0.00400
C985        C  0.82665985  0.74501810  0.78787562    -0.04000
C986        C  0.82654163  0.76024324  0.74757505     0.03000
C987        C  0.71447715  0.65833003  0.70274263     0.09900
C988        C  0.71474269  0.63134444  0.78532529     0.35800
C989        C  0.86601343  0.80222501  0.73368815     0.39200
C990        C  0.70988927  0.61567693  0.68930601    -0.04400
C991        C  0.66979588  0.58157375  0.66873742     0.02800
C992        C  0.63337342  0.58938565  0.66187637    -0.04000
C993        C  0.63890798  0.63305626  0.67345036    -0.00200
C994        C  0.68015180  0.66802814  0.69185715    -0.02800
C995        C  0.74768697  0.60806427  0.69441392     0.36500
C996        C  0.60296529  0.64282355  0.66443056     0.40100
C997        C  0.66646125  0.53886793  0.65357327     0.39300
C998        C  0.68965250  0.71537959  0.69458781     0.36200
C999        C  0.79202062  0.74685083  0.67755988     0.36900
C1000       C  0.79197398  0.68364645  0.83934678     0.40100
N1001       N  0.66369108  0.50476447  0.64142589    -0.38000
N1002       N  0.77793449  0.60189648  0.69745668    -0.39500
N1003       N  0.57440675  0.65072162  0.65699737    -0.37300
N1004       N  0.69862452  0.75373515  0.69424009    -0.39700
N1005       N  0.68398862  0.59585995  0.79384961    -0.39500
N1006       N  0.79594430  0.67008999  0.87069143    -0.37100
N1007       N  0.89772960  0.83562345  0.72274437    -0.38100
N1008       N  0.79365020  0.75806466  0.64385744    -0.39800
C1009       C  0.99237722  0.61690182  0.73398990    -0.04700
C1010       C  0.95600362  0.62269552  0.74643232     0.09400
C1011       C  0.91274863  0.59489817  0.72714818    -0.02100
C1012       C  0.90643256  0.56285777  0.69521098    -0.00400
C1013       C  0.94336803  0.55863726  0.68209750    -0.04000
C1014       C  0.98610670  0.58520154  0.70196650     0.03000
C1015       C  0.96380878  0.66154704  0.77575745     0.09900
C1016       C  0.87484430  0.59962540  0.74017240     0.35800
C1017       C  0.02377393  0.57961356  0.68936569     0.39200
C1018       C  0.98519455  0.70729501  0.76122178    -0.04400
C1019       C  0.97853004  0.74095665  0.78130971     0.02800
C1020       C  0.95759207  0.73202793  0.82022726    -0.04000
C1021       C  0.94286633  0.68844989  0.83791450    -0.00200
C1022       C  0.94301927  0.65240467  0.81464055    -0.02800
C1023       C  0.00997042  0.71854500  0.72311953     0.36500
C1024       C  0.92149544  0.67882374  0.87766112     0.40100
C1025       C  0.98581586  0.78098118  0.75827065     0.39300
C1026       C  0.91730604  0.60509769  0.82872996     0.36200
C1027       C  0.03670545  0.64356286  0.75349096     0.36900
C1028       C  0.86215122  0.53440048  0.67561006     0.40100
N1029       N  0.99112486  0.81248316  0.73958301    -0.38000
N1030       N  0.03040604  0.72776806  0.69312901    -0.39500
N1031       N  0.90442582  0.67119095  0.90936871    -0.37300
N1032       N  0.89618916  0.56732913  0.83985316    -0.39700
N1033       N  0.84509217  0.60354884  0.75189155    -0.39500
N1034       N  0.82685550  0.51155749  0.65989038    -0.37100
N1035       N  0.05360137  0.57489486  0.67928535    -0.38100
N1036       N  0.07295624  0.66358871  0.76770653    -0.39800
loop_ 
_geom_bond_atom_site_label_1 
_geom_bond_atom_site_label_2 
_geom_bond_distance 
_geom_bond_site_symmetry_2 
_ccdc_geom_bond_type 
C1            C2   1.427       .  A
C1            C6   1.411       .  A
C1          C178   1.518       .  S
C2            C3   1.413       .  A
C2            H7   1.075       .  S
C3            C4   1.383       .  A
C3          C467   1.500       .  S
C4            C5   1.388       .  A
C4            H8   1.087       .  S
C5            C6   1.420       .  A
C5          C502   1.491       .  S
C6            H9   1.068       .  S
C10          C11   1.422       .  A
C10          C15   1.423       .  A
C10         C160   1.515       .  S
C11          C12   1.418       .  A
C11          H16   1.073       .  S
C12          C13   1.386       .  A
C12         C439   1.496       .  S
C13          C14   1.383       .  A
C13          H17   1.087       .  S
C14          C15   1.415       .  A
C14         C418   1.496       .  S
C15          H18   1.072       .  S
C19          C20   1.415       .  A
C19          C24   1.430       .  A
C19         C171   1.521       .  S
C20          C21   1.410       .  A
C20          H25   1.064       .  S
C21          C22   1.387       .  A
C21         C390   1.497       .  S
C22          C23   1.392       .  A
C22          H26   1.086       .  S
C23          C24   1.428       .  A
C23         C355   1.513       .  S
C24          H27   1.071       .  S
N28          C33   1.355       .  A
N28          C32   1.355       .  A
N28          H60   1.031       .  S
N29          C36   1.355       .  A
N29          C37   1.355       .  A
N30          C35   1.356       .  A
N30          C34   1.355       .  A
N30          H61   1.039       .  S
N31         C556   1.351   1_554  A
N31         C557   1.351   1_554  A
C32          C40   1.390       .  A
C32          C48   1.423       .  A
C33          C49   1.420   1_554  A
C33          C41   1.387       .  A
C34          C42   1.388       .  A
C34          C51   1.421       .  A
C35          C50   1.417       .  A
C35          C43   1.386       .  A
C36          C48   1.425       .  A
C36          C44   1.387       .  A
C37          C51   1.425       .  A
C37          C45   1.387       .  A
C38          C46   1.386       .  A
C38         C567   1.415       .  A
C38         N549   1.352       .  A
C39          C47   1.386       .  A
C39         C568   1.414       .  A
C39         N549   1.351       .  A
C40          C41   1.370       .  A
C40          H52   1.082       .  S
C41          H53   1.082       .  S
C42          C43   1.375       .  A
C42          H54   1.082       .  S
C43          H55   1.082       .  S
C44          C45   1.379       .  A
C44          H56   1.082       .  S
C45          H57   1.082       .  S
C46          C47   1.375       .  A
C46          H58   1.082       .  S
C47          H59   1.082       .  S
C48         C474   1.507       .  S
C49         C556   1.415       .  A
C49         C964   1.496       .  S
C50         C557   1.413   1_554  A
C50         C852   1.500   1_554  S
C51         C362   1.515       .  S
C62          C63   1.420       .  A
C62          C67   1.411       .  A
C62         C167   1.503       .  S
C63          C64   1.406       .  A
C63          H68   1.078       .  S
C64          C65   1.383       .  A
C64         C327   1.489       .  S
C65          C66   1.387       .  A
C65          H69   1.087       .  S
C66          C67   1.419       .  A
C66         C306   1.496       .  S
C67          H70   1.068       .  S
C71          C72   1.421       .  A
C71          C76   1.417       .  A
C71         C170   1.503       .  S
C72          C73   1.418       .  A
C72          H77   1.070       .  S
C73          C74   1.382       .  A
C73         C243   1.495       .  S
C74          C75   1.380       .  A
C74          H78   1.087       .  S
C75          C76   1.417       .  A
C75         C278   1.500       .  S
C76          H79   1.058       .  S
C80          C81   1.418       .  A
C80          C85   1.422       .  A
C80         C164   1.505       .  S
C81          C82   1.413       .  A
C81          H86   1.074   1_545  S
C82          C83   1.388       .  A
C82         C194   1.498       .  S
C83          C84   1.388       .  A
C83          H87   1.087       .  S
C84          C85   1.421       .  A
C84         C222   1.506       .  S
C85          H88   1.067       .  S
N89          C94   1.354       .  A
N89          C93   1.351       .  A
N89         H121   1.040       .  S
N90          C97   1.350       .  A
N90          C98   1.352       .  A
N91          C96   1.354       .  A
N91          C95   1.349       .  A
N91         H122   1.043       .  S
N92         C617   1.347   1_655  A
N92         C618   1.351   1_655  A
C93         C101   1.386       .  A
C93         C109   1.413       .  A
C94         C110   1.418   1_655  A
C94         C102   1.388       .  A
C95         C103   1.382       .  A
C95         C112   1.407       .  A
C96         C111   1.424       .  A
C96         C104   1.390       .  A
C97         C109   1.411       .  A
C97         C105   1.387       .  A
C98         C112   1.409       .  A
C98         C106   1.385       .  A
C99         C107   1.383       .  A
C99         C628   1.409       .  A
C99         N610   1.347   1_455  A
C100        C108   1.389       .  A
C100        C629   1.420   1_455  A
C100        N610   1.351   1_455  A
C101        C102   1.380       .  A
C101        H113   1.082       .  S
C102        H114   1.082       .  S
C103        C104   1.383       .  A
C103        H115   1.082       .  S
C104        H116   1.082       .  S
C105        C106   1.375       .  A
C105        H117   1.082       .  S
C106        H118   1.082       .  S
C107        C108   1.381       .  A
C107        H119   1.082       .  S
C108        H120   1.082       .  S
C109        C495   1.492       .  S
C110        C617   1.409       .  A
C110        C789   1.501   1_554  S
C111        C618   1.420   1_655  A
C111        C817   1.527   1_554  S
C112        C215   1.498       .  S
N123        C128   1.352       .  A
N123        C127   1.354       .  A
N123        H155   1.040       .  S
N124        C131   1.346       .  A
N124        C132   1.351       .  A
N125        C130   1.348       .  A
N125        C129   1.354       .  A
N125        H156   1.043       .  S
N126        C133   1.353       .  A
N126        C652   1.352       .  A
C127        C135   1.388       .  A
C127        C143   1.417       .  A
C128        C144   1.413       .  A
C128        C136   1.386       .  A
C129        C137   1.390       .  A
C129        C146   1.424       .  A
C130        C145   1.407       .  A
C130        C138   1.384       .  A
C131        C143   1.407       .  A
C131        C139   1.384   1_565  A
C132        C146   1.419       .  A
C132        C140   1.388   1_565  A
C133        C144   1.414       .  A
C133        C659   1.386   1_554  A
C134        C142   1.386       .  A
C134        C663   1.414       .  A
C134        N644   1.352       .  A
C135        C136   1.380       .  A
C135        H147   1.082       .  S
C136        H148   1.082       .  S
C137        C138   1.383       .  A
C137        H149   1.082       .  S
C138        H150   1.082       .  S
C139        C140   1.381       .  A
C139        H151   1.082       .  S
C140        H152   1.082       .  S
C141        C142   1.378       .  A
C141        C651   1.386       .  A
C141        H153   1.082       .  S
C142        H154   1.082       .  S
C143        C383   1.497       .  S
C144        C768   1.498   1_554  S
C145        C652   1.414       .  A
C145        C929   1.498   1_554  S
C146        C187   1.524       .  S
O157       Ni163   2.008   1_655  S
O157        C178   1.296       .  A
O158       Ni181   1.883   1_545  S
O158        C167   1.258       .  A
O159       Ni163   1.901       .  S
O159       Ni181   1.899       .  S
O159       Ni175   1.949   1_455  S
O159        H182   0.967   1_565  S
C160        O177   1.283       .  A
C160        O169   1.302       .  A
O161       Ni180   1.992   1_445  S
O161        C167   1.290       .  A
O162       Ni180   1.877   1_545  S
O162        C164   1.256       .  A
Ni163       O166   2.007   1_565  S
Ni163       O168   1.859       .  S
C164        O174   1.293       .  A
O165       Ni181   1.932   1_545  S
O165        C171   1.281       .  A
O166        C171   1.308       .  A
O168        C170   1.251       .  A
O169       Ni180   1.994       .  S
C170        O176   1.298       .  A
H172        O173   0.967       .  S
O173       Ni181   1.948   1_655  S
O173       Ni175   1.903       .  S
O173       Ni180   1.909       .  S
O174       Ni175   2.003   1_545  S
Ni175       O179   1.886       .  S
Ni175       O177   1.939       .  S
O176       Ni181   2.014       .  S
C178        O179   1.260       .  A
C183        C184   1.418   1_545  A
C183        C188   1.414   1_545  A
C183        C201   1.449       .  S
C184        C185   1.420       .  A
C184        C189   1.524   1_565  S
C185        C186   1.408       .  A
C185        C190   1.451       .  S
C186        C187   1.420       .  A
C186        C202   1.452       .  S
C187        C188   1.423       .  A
C188        C191   1.449       .  S
C189        C192   1.427   1_545  A
C189        C196   1.416       .  A
C190        N207   1.157       .  T
C191        N209   1.157       .  T
C192        C193   1.424   1_565  A
C192        C197   1.446       .  S
C193        C194   1.407       .  A
C193        C199   1.446       .  S
C194        C195   1.410       .  A
C195        C196   1.403       .  A
C195        C198   1.447       .  S
C196        C200   1.453       .  S
C197        N204   1.157       .  T
C198        N205   1.156       .  T
C199        N203   1.157       .  T
C200        N206   1.157       .  T
C201        N210   1.157       .  T
C202        N208   1.158       .  T
C211        C212   1.418       .  A
C211        C216   1.417       .  A
C211        C229   1.450       .  S
C212        C213   1.416       .  A
C212        C217   1.513       .  S
C213        C214   1.411       .  A
C213        C218   1.446   1_655  S
C214        C215   1.411       .  A
C214        C230   1.454       .  S
C215        C216   1.409       .  A
C216        C219   1.448       .  S
C217        C220   1.411       .  A
C217        C224   1.413       .  A
C218        N235   1.156       .  T
C219        N237   1.157       .  T
C220        C221   1.419       .  A
C220        C225   1.452       .  S
C221        C222   1.421       .  A
C221        C227   1.447       .  S
C222        C223   1.415       .  A
C223        C224   1.417       .  A
C223        C226   1.449       .  S
C224        C228   1.450       .  S
C225        N232   1.157       .  T
C226        N233   1.157       .  T
C227        N231   1.157       .  T
C228        N234   1.157       .  T
C229        N238   1.157       .  T
C230        N236   1.157   1_655  T
C239        C240   1.413       .  A
C239        C244   1.415       .  A
C239        C257   1.451       .  S
C240        C241   1.414       .  A
C240        C245   1.510       .  S
C241        C242   1.414       .  A
C241        C246   1.450       .  S
C242        C243   1.414       .  A
C242        C258   1.450       .  S
C243        C244   1.420       .  A
C244        C247   1.451       .  S
C245        C248   1.419       .  A
C245        C252   1.413       .  A
C246        N263   1.157       .  T
C247        N265   1.157       .  T
C248        C249   1.417       .  A
C248        C253   1.451       .  S
C249        C250   1.411       .  A
C249        C773   1.449       .  S
C250        C251   1.410       .  A
C250        C662   1.498       .  S
C251        C252   1.410       .  A
C251        C254   1.453       .  S
C252        C256   1.444   1_565  S
C253        N778   1.158       .  T
C254        N261   1.157   1_565  T
C255        C767   1.449       .  S
C255        N259   1.157       .  T
C256        N262   1.155       .  T
C257        N266   1.157       .  T
C258        N264   1.157       .  T
N260        C771   1.158       .  T
C267        C268   1.415       .  A
C267        C272   1.412       .  A
C267        C285   1.446       .  S
C268        C269   1.417       .  A
C268        C273   1.512       .  S
C269        C270   1.414       .  A
C269        C274   1.450       .  S
C270        C271   1.412       .  A
C270        C804   1.450       .  S
C271        C272   1.413       .  A
C271        C628   1.502       .  S
C272        C275   1.451   1_455  S
C273        C276   1.416       .  A
C273        C280   1.412       .  A
C274        N291   1.157       .  T
C275        N293   1.157       .  T
C276        C277   1.413       .  A
C276        C281   1.451       .  S
C277        C278   1.415       .  A
C277        C283   1.450       .  S
C278        C279   1.419       .  A
C279        C280   1.415       .  A
C279        C282   1.452       .  S
C280        C284   1.450       .  S
C281        N288   1.157   1_455  T
C282        N289   1.157       .  T
C283        N287   1.158       .  T
C284        N290   1.157       .  T
C285        N294   1.156   1_455  T
C286        C788   1.450   1_554  S
C286        N292   1.157       .  T
C295        C296   1.417       .  A
C295        C300   1.411       .  A
C295        C313   1.448       .  S
C296        C297   1.424   1_455  A
C296        C301   1.529       .  S
C297        C298   1.411       .  A
C297        C302   1.451       .  S
C298        C299   1.421       .  A
C298        C832   1.452       .  S
C299        C300   1.422   1_655  A
C299        C629   1.526       .  S
C300        C303   1.448       .  S
C301        C304   1.417       .  A
C301        C308   1.432       .  A
C302        N319   1.158       .  T
C303        N321   1.157   1_455  T
C304        C305   1.405       .  A
C304        C309   1.453       .  S
C305        C306   1.413       .  A
C305        C311   1.450       .  S
C306        C307   1.403       .  A
C307        C308   1.422       .  A
C307        C310   1.446       .  S
C308        C312   1.445       .  S
C309        N316   1.157       .  T
C310        N317   1.157       .  T
C311        N315   1.156       .  T
C312        N318   1.157       .  T
C313        N322   1.157       .  T
C314        C816   1.452   1_554  S
C314        N320   1.158       .  T
C323        C324   1.418       .  A
C323        C328   1.415       .  A
C323        C341   1.451       .  S
C324        C325   1.418       .  A
C324        C329   1.513       .  S
C325        C326   1.409       .  A
C325        C330   1.447       .  S
C326        C327   1.409       .  A
C326        C342   1.453       .  S
C327        C328   1.413       .  A
C328        C331   1.451       .  S
C329        C332   1.417       .  A
C329        C336   1.419       .  A
C330        N347   1.156       .  T
C331        N349   1.157       .  T
C332        C333   1.413       .  A
C332        C337   1.447       .  S
C333        C334   1.411       .  A
C333        C339   1.451       .  S
C334        C335   1.410       .  A
C334        C568   1.500       .  S
C335        C336   1.413       .  A
C335        C856   1.450       .  S
C336        C340   1.451       .  S
C337        N344   1.156       .  T
C338        C853   1.450       .  S
C338        N345   1.157       .  T
C339        N343   1.157       .  T
C340        N346   1.157       .  T
C341        N350   1.157       .  T
C342        N348   1.157       .  T
C351        C352   1.409       .  A
C351        C356   1.417       .  A
C351        C369   1.451       .  S
C352        C353   1.417       .  A
C352        C357   1.517       .  S
C353        C354   1.420       .  A
C353        C358   1.451       .  S
C354        C355   1.415       .  A
C354        C370   1.448       .  S
C355        C356   1.426       .  A
C356        C359   1.450       .  S
C357        C360   1.416       .  A
C357        C364   1.417       .  A
C358        N375   1.157       .  T
C359        N377   1.157       .  T
C360        C361   1.413       .  A
C360        C365   1.452       .  S
C361        C362   1.418       .  A
C361        C367   1.452       .  S
C362        C363   1.416       .  A
C363        C364   1.417       .  A
C363        C366   1.451       .  S
C364        C368   1.447       .  S
C365        N372   1.157       .  T
C366        N373   1.157       .  T
C367        N371   1.157       .  T
C368        N374   1.157       .  T
C369        N378   1.157       .  T
C370        N376   1.157       .  T
C379        C380   1.416       .  A
C379        C384   1.414       .  A
C379        C397   1.450       .  S
C380        C381   1.413   1_545  A
C380        C385   1.510       .  S
C381        C382   1.410       .  A
C381        C386   1.446       .  S
C382        C383   1.412       .  A
C382        C398   1.452       .  S
C383        C384   1.411   1_565  A
C384        C387   1.450       .  S
C385        C388   1.416       .  A
C385        C392   1.412       .  A
C386        N403   1.156       .  T
C387        N405   1.157       .  T
C388        C389   1.415       .  A
C388        C393   1.451   1_545  S
C389        C390   1.414       .  A
C389        C395   1.449       .  S
C390        C391   1.414       .  A
C391        C392   1.414       .  A
C391        C394   1.448       .  S
C392        C396   1.449       .  S
C393        N400   1.157       .  T
C394        N401   1.157       .  T
C395        N399   1.157       .  T
C396        N402   1.157       .  T
C397        N406   1.157       .  T
C398        N404   1.157       .  T
C407        C408   1.413       .  A
C407        C412   1.410       .  A
C407        C425   1.447       .  S
C408        C409   1.417       .  A
C408        C413   1.510       .  S
C409        C410   1.416       .  A
C409        C414   1.444       .  S
C410        C411   1.408       .  A
C410        C426   1.450       .  S
C411        C412   1.413       .  A
C411        C663   1.496       .  S
C412        C415   1.453       .  S
C413        C416   1.414       .  A
C413        C420   1.413       .  A
C414        N431   1.155       .  T
C415        N951   1.157       .  T
C416        C417   1.418       .  A
C416        C421   1.450       .  S
C417        C418   1.416       .  A
C417        C423   1.450       .  S
C418        C419   1.414       .  A
C419        C420   1.415       .  A
C419        C422   1.450       .  S
C420        C424   1.450       .  S
C421        N428   1.157       .  T
C422        N429   1.157       .  T
C423        N427   1.157       .  T
C424        N430   1.157       .  T
C425        N434   1.157   1_565  T
C426        N432   1.157       .  T
N433        C933   1.157       .  T
C435        C436   1.411       .  A
C435        C440   1.410       .  A
C435        C453   1.452       .  S
C436        C437   1.415       .  A
C436        C441   1.510       .  S
C437        C438   1.418       .  A
C437        C442   1.451       .  S
C438        C439   1.416       .  A
C438        C454   1.451       .  S
C439        C440   1.419       .  A
C440        C443   1.449       .  S
C441        C444   1.415       .  A
C441        C448   1.419       .  A
C442        N459   1.157       .  T
C443        N461   1.157       .  T
C444        C445   1.413       .  A
C444        C449   1.446       .  S
C445        C446   1.410       .  A
C445        C969   1.450       .  S
C446        C447   1.409       .  A
C446        C567   1.498       .  S
C447        C448   1.411       .  A
C447        C450   1.451       .  S
C448        C452   1.449       .  S
C449        N456   1.157       .  T
C450        N457   1.157       .  T
C451        C963   1.451       .  S
C451        N455   1.157       .  T
C452        N458   1.156       .  T
C453        N462   1.157       .  T
C454        N460   1.157       .  T
C463        C464   1.416       .  A
C463        C468   1.420       .  A
C463        C481   1.449       .  S
C464        C465   1.414       .  A
C464        C469   1.514       .  S
C465        C466   1.412       .  A
C465        C470   1.450       .  S
C466        C467   1.415       .  A
C466        C482   1.450       .  S
C467        C468   1.415       .  A
C468        C471   1.450       .  S
C469        C472   1.415       .  A
C469        C476   1.411       .  A
C470        N487   1.157       .  T
C471        N489   1.157       .  T
C472        C473   1.413       .  A
C472        C477   1.446       .  S
C473        C474   1.411       .  A
C473        C479   1.451       .  S
C474        C475   1.417       .  A
C475        C476   1.415       .  A
C475        C478   1.451       .  S
C476        C480   1.446       .  S
C477        N484   1.155       .  T
C478        N485   1.157       .  T
C479        N483   1.157       .  T
C480        N486   1.157       .  T
C481        N490   1.157       .  T
C482        N488   1.157       .  T
C491        C492   1.413       .  A
C491        C496   1.409       .  A
C491        C509   1.444   1_655  S
C492        C493   1.418       .  A
C492        C497   1.507       .  S
C493        C494   1.413       .  A
C493        C498   1.448       .  S
C494        C495   1.409       .  A
C494        C510   1.449       .  S
C495        C496   1.409       .  A
C496        C499   1.453   1_655  S
C497        C500   1.411       .  A
C497        C504   1.417       .  A
C498        N515   1.156       .  T
C499        N517   1.157       .  T
C500        C501   1.409       .  A
C500        C505   1.452   1_655  S
C501        C502   1.421       .  A
C501        C507   1.453       .  S
C502        C503   1.412       .  A
C503        C504   1.415       .  A
C503        C506   1.450       .  S
C504        C508   1.450       .  S
C505        N512   1.157       .  T
C506        N513   1.157       .  T
C507        N511   1.158       .  T
C508        N514   1.158       .  T
C509        N518   1.155       .  T
C510        N516   1.157       .  T
C519        C520   1.426       .  A
C519        C524   1.411       .  A
C519        C696   1.517       .  S
C520        C521   1.411       .  A
C520        H525   1.075       .  S
C521        C522   1.382       .  A
C521        C985   1.498       .  S
C522        C523   1.387       .  A
C522        H526   1.087       .  S
C523        C524   1.420       .  A
C523       C1020   1.490       .  S
C524        H527   1.069       .  S
C528        C529   1.422       .  A
C528        C533   1.424       .  A
C528        C678   1.514       .  S
C529        C530   1.418       .  A
C529        H534   1.074       .  S
C530        C531   1.386       .  A
C530        C957   1.496       .  S
C531        C532   1.383       .  A
C531        H535   1.087       .  S
C532        C533   1.415       .  A
C532        C936   1.496       .  S
C533        H536   1.072       .  S
C537        C538   1.414       .  A
C537        C542   1.428       .  A
C537        C689   1.518       .  S
C538        C539   1.410       .  A
C538        H543   1.065       .  S
C539        C540   1.387       .  A
C539        C908   1.496       .  S
C540        C541   1.391       .  A
C540        H544   1.086       .  S
C541        C542   1.426       .  A
C541        C873   1.511       .  S
C542        H545   1.071       .  S
N546        C551   1.355       .  A
N546        C550   1.355       .  A
N546        H578   1.032       .  S
N547        C554   1.355       .  A
N547        C555   1.355       .  A
N548        C553   1.356       .  A
N548        C552   1.355       .  A
N548        H579   1.039       .  S
C550        C558   1.390       .  A
C550        C566   1.423       .  A
C551        C567   1.419       .  A
C551        C559   1.387       .  A
C552        C560   1.388       .  A
C552        C569   1.421       .  A
C553        C568   1.417       .  A
C553        C561   1.386       .  A
C554        C566   1.424       .  A
C554        C562   1.387       .  A
C555        C569   1.424       .  A
C555        C563   1.387       .  A
C556        C564   1.386       .  A
C557        C565   1.386       .  A
C558        C559   1.369       .  A
C558        H570   1.082       .  S
C559        H571   1.082       .  S
C560        C561   1.375       .  A
C560        H572   1.083       .  S
C561        H573   1.082       .  S
C562        C563   1.379       .  A
C562        H574   1.082       .  S
C563        H575   1.082       .  S
C564        C565   1.375       .  A
C564        H576   1.082       .  S
C565        H577   1.082       .  S
C566        C992   1.506       .  S
C569        C880   1.515       .  S
C580        C581   1.421       .  A
C580        C585   1.411       .  A
C580        C685   1.503       .  S
C581        C582   1.407       .  A
C581        H586   1.078       .  S
C582        C583   1.383       .  A
C582        C845   1.489       .  S
C583        C584   1.386       .  A
C583        H587   1.087       .  S
C584        C585   1.419       .  A
C584        C824   1.497       .  S
C585        H588   1.068       .  S
C589        C590   1.422       .  A
C589        C594   1.417       .  A
C589        C688   1.505       .  S
C590        C591   1.418       .  A
C590        H595   1.070       .  S
C591        C592   1.382       .  A
C591        C761   1.495       .  S
C592        C593   1.380       .  A
C592        H596   1.087       .  S
C593        C594   1.417       .  A
C593        C796   1.500       .  S
C594        H597   1.058       .  S
C598        C599   1.418       .  A
C598        C603   1.422       .  A
C598        C682   1.506       .  S
C599        C600   1.413       .  A
C599        H604   1.074       .  S
C600        C601   1.389       .  A
C600        C712   1.497       .  S
C601        C602   1.388       .  A
C601        H605   1.087       .  S
C602        C603   1.421       .  A
C602        C740   1.506       .  S
C603        H606   1.067       .  S
N607        C612   1.355       .  A
N607        C611   1.352       .  A
N607        H639   1.040       .  S
N608        C615   1.350       .  A
N608        C616   1.352       .  A
N609        C614   1.354       .  A
N609        C613   1.349       .  A
N609        H640   1.043       .  S
C611        C619   1.386       .  A
C611        C627   1.414       .  A
C612        C628   1.419   1_655  A
C612        C620   1.388       .  A
C613        C621   1.382       .  A
C613        C630   1.406       .  A
C614        C629   1.424       .  A
C614        C622   1.390       .  A
C615        C627   1.411       .  A
C615        C623   1.387       .  A
C616        C630   1.409       .  A
C616        C624   1.385       .  A
C617        C625   1.383   1_554  A
C618        C626   1.389   1_554  A
C619        C620   1.381       .  A
C619        H631   1.082       .  S
C620        H632   1.082       .  S
C621        C622   1.383       .  A
C621        H633   1.082       .  S
C622        H634   1.082       .  S
C623        C624   1.375       .  A
C623        H635   1.082       .  S
C624        H636   1.082       .  S
C625        C626   1.381       .  A
C625        H637   1.082       .  S
C626        H638   1.082       .  S
C627       C1013   1.492       .  S
C630        C733   1.498       .  S
N641        C646   1.352       .  A
N641        C645   1.353       .  A
N641        H673   1.041       .  S
N642        C649   1.345       .  A
N642        C650   1.350       .  A
N643        C648   1.347       .  A
N643        C647   1.354       .  A
N643        H674   1.043       .  S
N644        C651   1.353       .  A
C645        C653   1.388       .  A
C645        C661   1.417       .  A
C646        C662   1.413       .  A
C646        C654   1.386       .  A
C647        C655   1.389       .  A
C647        C664   1.423       .  A
C648        C663   1.406       .  A
C648        C656   1.384       .  A
C649        C661   1.407       .  A
C649        C657   1.384   1_565  A
C650        C664   1.418       .  A
C650        C658   1.388   1_565  A
C651        C662   1.414       .  A
C652        C660   1.386   1_554  A
C653        C654   1.380       .  A
C653        H665   1.082       .  S
C654        H666   1.082       .  S
C655        C656   1.383       .  A
C655        H667   1.082       .  S
C656        H668   1.081       .  S
C657        C658   1.380       .  A
C657        H669   1.082       .  S
C658        H670   1.082       .  S
C659        C660   1.378       .  A
C659        H671   1.082       .  S
C660        H672   1.082       .  S
C661        C901   1.495       .  S
C664        C705   1.523       .  S
O675       Ni681   2.006   1_655  S
O675        C696   1.295       .  A
O676       Ni699   1.885   1_545  S
O676        C685   1.259       .  A
O677       Ni681   1.901       .  S
O677       Ni699   1.899       .  S
O677       Ni693   1.949   1_455  S
O677        H700   0.967   1_565  S
C678        O695   1.283       .  A
C678        O687   1.302       .  A
O679       Ni698   1.991   1_445  S
O679        C685   1.290       .  A
O680       Ni698   1.878   1_545  S
O680        C682   1.256       .  A
Ni681       O684   2.005   1_565  S
Ni681       O686   1.861       .  S
C682        O692   1.293       .  A
O683       Ni699   1.930   1_545  S
O683        C689   1.280       .  A
O684        C689   1.307       .  A
O686        C688   1.251       .  A
O687       Ni698   1.993       .  S
C688        O694   1.298       .  A
H690        O691   0.967       .  S
O691       Ni699   1.949   1_655  S
O691       Ni693   1.903       .  S
O691       Ni698   1.910       .  S
O692       Ni693   2.002   1_545  S
Ni693       O697   1.885       .  S
Ni693       O695   1.940       .  S
O694       Ni699   2.015       .  S
C696        O697   1.260       .  A
C701        C702   1.418   1_545  A
C701        C706   1.414   1_545  A
C701        C719   1.449       .  S
C702        C703   1.420       .  A
C702        C707   1.524   1_565  S
C703        C704   1.408       .  A
C703        C708   1.451       .  S
C704        C705   1.420       .  A
C704        C720   1.452       .  S
C705        C706   1.422       .  A
C706        C709   1.449       .  S
C707        C710   1.427   1_545  A
C707        C714   1.415       .  A
C708        N725   1.157       .  T
C709        N727   1.157       .  T
C710        C711   1.424   1_565  A
C710        C715   1.446       .  S
C711        C712   1.408       .  A
C711        C717   1.446       .  S
C712        C713   1.410       .  A
C713        C714   1.403       .  A
C713        C716   1.447       .  S
C714        C718   1.453       .  S
C715        N722   1.157       .  T
C716        N723   1.156       .  T
C717        N721   1.157       .  T
C718        N724   1.157       .  T
C719        N728   1.157       .  T
C720        N726   1.158       .  T
C729        C730   1.418       .  A
C729        C734   1.418       .  A
C729        C747   1.450       .  S
C730        C731   1.416       .  A
C730        C735   1.513       .  S
C731        C732   1.411       .  A
C731        C736   1.446   1_655  S
C732        C733   1.411       .  A
C732        C748   1.454       .  S
C733        C734   1.409       .  A
C734        C737   1.448       .  S
C735        C738   1.412       .  A
C735        C742   1.413       .  A
C736        N753   1.156       .  T
C737        N755   1.157       .  T
C738        C739   1.420       .  A
C738        C743   1.452       .  S
C739        C740   1.421       .  A
C739        C745   1.447       .  S
C740        C741   1.415       .  A
C741        C742   1.417       .  A
C741        C744   1.449       .  S
C742        C746   1.450       .  S
C743        N750   1.157       .  T
C744        N751   1.157       .  T
C745        N749   1.157       .  T
C746        N752   1.157       .  T
C747        N756   1.157       .  T
C748        N754   1.157   1_655  T
C757        C758   1.413       .  A
C757        C762   1.415       .  A
C757        C775   1.451       .  S
C758        C759   1.414       .  A
C758        C763   1.511       .  S
C759        C760   1.415       .  A
C759        C764   1.450       .  S
C760        C761   1.415       .  A
C760        C776   1.450       .  S
C761        C762   1.420       .  A
C762        C765   1.451       .  S
C763        C766   1.419       .  A
C763        C770   1.413       .  A
C764        N781   1.157       .  T
C765        N783   1.158       .  T
C766        C767   1.417       .  A
C766        C771   1.451       .  S
C767        C768   1.411       .  A
C768        C769   1.410       .  A
C769        C770   1.410       .  A
C769        C772   1.453       .  S
C770        C774   1.444   1_565  S
C772        N779   1.157   1_565  T
C773        N777   1.157       .  T
C774        N780   1.155       .  T
C775        N784   1.157       .  T
C776        N782   1.157       .  T
C785        C786   1.415       .  A
C785        C790   1.412       .  A
C785        C803   1.446       .  S
C786        C787   1.416       .  A
C786        C791   1.512       .  S
C787        C788   1.414       .  A
C787        C792   1.450       .  S
C788        C789   1.412       .  A
C789        C790   1.413       .  A
C790        C793   1.451   1_455  S
C791        C794   1.416       .  A
C791        C798   1.411       .  A
C792        N809   1.157       .  T
C793        N811   1.157       .  T
C794        C795   1.414       .  A
C794        C799   1.451       .  S
C795        C796   1.415       .  A
C795        C801   1.450       .  S
C796        C797   1.420       .  A
C797        C798   1.415       .  A
C797        C800   1.452       .  S
C798        C802   1.450       .  S
C799        N806   1.157   1_455  T
C800        N807   1.157       .  T
C801        N805   1.158       .  T
C802        N808   1.157       .  T
C803        N812   1.156   1_455  T
C804        N810   1.157       .  T
C813        C814   1.416       .  A
C813        C818   1.411       .  A
C813        C831   1.448       .  S
C814        C815   1.424   1_455  A
C814        C819   1.530       .  S
C815        C816   1.411       .  A
C815        C820   1.451       .  S
C816        C817   1.421       .  A
C817        C818   1.422   1_655  A
C818        C821   1.448       .  S
C819        C822   1.416       .  A
C819        C826   1.432       .  A
C820        N837   1.158       .  T
C821        N839   1.157   1_455  T
C822        C823   1.405       .  A
C822        C827   1.453       .  S
C823        C824   1.413       .  A
C823        C829   1.450       .  S
C824        C825   1.403       .  A
C825        C826   1.423       .  A
C825        C828   1.446       .  S
C826        C830   1.445       .  S
C827        N834   1.157       .  T
C828        N835   1.156       .  T
C829        N833   1.156       .  T
C830        N836   1.157       .  T
C831        N840   1.157       .  T
C832        N838   1.158       .  T
C841        C842   1.418       .  A
C841        C846   1.415       .  A
C841        C859   1.451       .  S
C842        C843   1.418       .  A
C842        C847   1.513       .  S
C843        C844   1.410       .  A
C843        C848   1.447       .  S
C844        C845   1.410       .  A
C844        C860   1.453       .  S
C845        C846   1.413       .  A
C846        C849   1.451       .  S
C847        C850   1.417       .  A
C847        C854   1.419       .  A
C848        N865   1.156       .  T
C849        N867   1.157       .  T
C850        C851   1.412       .  A
C850        C855   1.447       .  S
C851        C852   1.410       .  A
C851        C857   1.451       .  S
C852        C853   1.410       .  A
C853        C854   1.414       .  A
C854        C858   1.451       .  S
C855        N862   1.156       .  T
C856        N863   1.157       .  T
C857        N861   1.157   1_556  T
C858        N864   1.157       .  T
C859        N868   1.157       .  T
C860        N866   1.157       .  T
C869        C870   1.410       .  A
C869        C874   1.416       .  A
C869        C887   1.451       .  S
C870        C871   1.417       .  A
C870        C875   1.516       .  S
C871        C872   1.419       .  A
C871        C876   1.451       .  S
C872        C873   1.415       .  A
C872        C888   1.449       .  S
C873        C874   1.426       .  A
C874        C877   1.450       .  S
C875        C878   1.416       .  A
C875        C882   1.416       .  A
C876        N893   1.157       .  T
C877        N895   1.157       .  T
C878        C879   1.413       .  A
C878        C883   1.453       .  S
C879        C880   1.418       .  A
C879        C885   1.452       .  S
C880        C881   1.416       .  A
C881        C882   1.417       .  A
C881        C884   1.450       .  S
C882        C886   1.447       .  S
C883        N890   1.157       .  T
C884        N891   1.157       .  T
C885        N889   1.157       .  T
C886        N892   1.157       .  T
C887        N896   1.157       .  T
C888        N894   1.157       .  T
C897        C898   1.416       .  A
C897        C902   1.414       .  A
C897        C915   1.450       .  S
C898        C899   1.413   1_545  A
C898        C903   1.509       .  S
C899        C900   1.409       .  A
C899        C904   1.446       .  S
C900        C901   1.412       .  A
C900        C916   1.452       .  S
C901        C902   1.411   1_565  A
C902        C905   1.450       .  S
C903        C906   1.416       .  A
C903        C910   1.412       .  A
C904        N921   1.156       .  T
C905        N923   1.157       .  T
C906        C907   1.415       .  A
C906        C911   1.452   1_545  S
C907        C908   1.415       .  A
C907        C913   1.450       .  S
C908        C909   1.413       .  A
C909        C910   1.414       .  A
C909        C912   1.449       .  S
C910        C914   1.449       .  S
C911        N918   1.157       .  T
C912        N919   1.157       .  T
C913        N917   1.157       .  T
C914        N920   1.157       .  T
C915        N924   1.157       .  T
C916        N922   1.157       .  T
C925        C926   1.413       .  A
C925        C930   1.410       .  A
C925        C943   1.447       .  S
C926        C927   1.417       .  A
C926        C931   1.511       .  S
C927        C928   1.417       .  A
C927        C932   1.445       .  S
C928        C929   1.409       .  A
C928        C944   1.449       .  S
C929        C930   1.413       .  A
C930        C933   1.453   1_556  S
C931        C934   1.414       .  A
C931        C938   1.413       .  A
C932        N949   1.155       .  T
C934        C935   1.418       .  A
C934        C939   1.450       .  S
C935        C936   1.415       .  A
C935        C941   1.450       .  S
C936        C937   1.414       .  A
C937        C938   1.416       .  A
C937        C940   1.450       .  S
C938        C942   1.450       .  S
C939        N946   1.157   1_556  T
C940        N947   1.157       .  T
C941        N945   1.157       .  T
C942        N948   1.157       .  T
C943        N952   1.157   1_565  T
C944        N950   1.157   1_556  T
C953        C954   1.411       .  A
C953        C958   1.410       .  A
C953        C971   1.452       .  S
C954        C955   1.415       .  A
C954        C959   1.509       .  S
C955        C956   1.418       .  A
C955        C960   1.451       .  S
C956        C957   1.416       .  A
C956        C972   1.451       .  S
C957        C958   1.420       .  A
C958        C961   1.450       .  S
C959        C962   1.415       .  A
C959        C966   1.419       .  A
C960        N977   1.157       .  T
C961        N979   1.157       .  T
C962        C963   1.412       .  A
C962        C967   1.446       .  S
C963        C964   1.409       .  A
C964        C965   1.408       .  A
C965        C966   1.410       .  A
C965        C968   1.451       .  S
C966        C970   1.449       .  S
C967        N974   1.157       .  T
C968        N975   1.157       .  T
C969        N973   1.157       .  T
C970        N976   1.157       .  T
C971        N980   1.157       .  T
C972        N978   1.157       .  T
C981        C982   1.415       .  A
C981        C986   1.419       .  A
C981        C999   1.449       .  S
C982        C983   1.413       .  A
C982        C987   1.511       .  S
C983        C984   1.411       .  A
C983        C988   1.450       .  S
C984        C985   1.415       .  A
C984       C1000   1.450       .  S
C985        C986   1.415       .  A
C986        C989   1.450       .  S
C987        C990   1.414       .  A
C987        C994   1.410       .  A
C988       N1005   1.157       .  T
C989       N1007   1.157       .  T
C990        C991   1.413       .  A
C990        C995   1.446       .  S
C991        C992   1.412       .  A
C991        C997   1.451       .  S
C992        C993   1.417       .  A
C993        C994   1.414       .  A
C993        C996   1.450       .  S
C994        C998   1.446       .  S
C995       N1002   1.156       .  T
C996       N1003   1.157       .  T
C997       N1001   1.157       .  T
C998       N1004   1.157       .  T
C999       N1008   1.157       .  T
C1000      N1006   1.157       .  T
C1009      C1010   1.413       .  A
C1009      C1014   1.408       .  A
C1009      C1027   1.443   1_655  S
C1010      C1011   1.418       .  A
C1010      C1015   1.507       .  S
C1011      C1012   1.413       .  A
C1011      C1016   1.449       .  S
C1012      C1013   1.409       .  A
C1012      C1028   1.449       .  S
C1013      C1014   1.409       .  A
C1014      C1017   1.453   1_655  S
C1015      C1018   1.411       .  A
C1015      C1022   1.417       .  A
C1016      N1033   1.156       .  T
C1017      N1035   1.157       .  T
C1018      C1019   1.408       .  A
C1018      C1023   1.452   1_655  S
C1019      C1020   1.420       .  A
C1019      C1025   1.453       .  S
C1020      C1021   1.412       .  A
C1021      C1022   1.415       .  A
C1021      C1024   1.450       .  S
C1022      C1026   1.450       .  S
C1023      N1030   1.157       .  T
C1024      N1031   1.157       .  T
C1025      N1029   1.157       .  T
C1026      N1032   1.158       .  T
C1027      N1036   1.155       .  T
C1028      N1034   1.157       .  T
