geometry optimzed in LAMMPS
_audit_creation_date              2020-11-30 
_audit_creation_method            'lammps2cif' 
_symmetry_space_group_name_H-M    'P1' 
_symmetry_Int_Tables_number       1 
_symmetry_cell_setting            triclinic 
loop_ 
_symmetry_equiv_pos_as_xyz 
  x,y,z 
_cell_length_a                    51.93197631 
_cell_length_b                    51.90744514266961 
_cell_length_c                    30.273307675981137 
_cell_angle_alpha                 89.86045788994805 
_cell_angle_beta                  90.0992577662813 
_cell_angle_gamma                 120.26470065166592 
loop_ 
_atom_site_label 
_atom_site_type_symbol 
_atom_site_fract_x 
_atom_site_fract_y 
_atom_site_fract_z 
_atom_site_charge 
C1          C  0.22303333  0.21803538  0.28722408     0.81000
N2          N  0.24556567  0.24137357  0.30891344    -0.77400
C3          C  0.26836595  0.26407325  0.28665808     0.83400
N4          N  0.26841060  0.26339716  0.24185170    -0.77300
C5          C  0.24603808  0.24021301  0.21946896     0.83500
N6          N  0.22342052  0.21753395  0.24238083    -0.79000
C7          C  0.22195533  0.22444593  0.81846519     0.81000
N8          N  0.22298110  0.22155183  0.86294461    -0.77400
C9          C  0.24594648  0.24290695  0.88696363     0.83400
N10         N  0.26816634  0.26702387  0.86610306    -0.77300
C11         C  0.26737458  0.27024617  0.82174538     0.83500
N12         N  0.24420501  0.24885616  0.79815946    -0.79000
C13         C  0.24553098  0.47875094  0.29166028     0.81000
N14         N  0.22462593  0.48316639  0.31168169    -0.77400
C15         C  0.20388707  0.48564756  0.28750528     0.83400
N16         N  0.20450694  0.48418367  0.24285245    -0.77300
C17         C  0.22539371  0.48015493  0.22218208     0.83500
N18         N  0.24571107  0.47716491  0.24678204    -0.79000
C19         C  0.24556938  0.47230372  0.81993253     0.81000
N20         N  0.22267225  0.47247344  0.79857371    -0.77400
C21         C  0.20079864  0.47374645  0.82115218     0.83400
N22         N  0.20199855  0.47489685  0.86599174    -0.77300
C23         C  0.22474690  0.47469315  0.88812350     0.83500
N24         N  0.24643968  0.47340635  0.86478324    -0.79000
C25         C  0.49360238  0.23845738  0.28854114     0.81000
N26         N  0.49026383  0.23758608  0.24390974    -0.77400
C27         C  0.48799865  0.21430772  0.22007642     0.83400
N28         N  0.48901944  0.19171737  0.24146840    -0.77300
C29         C  0.49256879  0.19241960  0.28599635     0.83500
N30         N  0.49480287  0.21581985  0.30909242    -0.79000
C31         C  0.49032387  0.23699424  0.81935883     0.81000
N32         N  0.48764434  0.23543529  0.86400643    -0.77400
C33         C  0.48695149  0.21243025  0.88655429     0.83400
N34         N  0.48845285  0.19062748  0.86390888    -0.77300
C35         C  0.49091410  0.19182787  0.81915193     0.83500
N36         N  0.49200244  0.21519518  0.79726659    -0.79000
O37         O  0.41835591  0.99716854  0.50742392    -0.87400
C38         C  0.07244772  0.06327677  0.61795336     1.12600
O39         O  0.45512159  0.47402345  0.55496471    -1.35300
O40         O  0.05072059  0.06605103  0.50485337    -0.88900
O41         O  0.39486977  0.44743783  0.50465078    -0.89600
O42         O  0.45553985  0.44384265  0.46198748    -0.78400
O43         O  0.48461774  0.03244690  0.51377587    -1.00500
C44         C  0.04078734  0.47696656  0.47321461     1.22600
O45         O  0.48727289  0.44441881  0.55455409    -1.35400
Mn46       Mn  0.48701357  0.47517290  0.60236373     1.82100
O47         O  0.01743504  0.47650440  0.46153161    -0.77500
O48         O  0.07700166  0.04272480  0.50502354    -0.86900
C49         C  0.04155323  0.47658265  0.63520639     1.13700
C50         C  0.07151252  0.06232212  0.48995337     1.08400
O51         O  0.45689921  0.44465684  0.64741974    -0.78400
O52         O  0.01738554  0.00653637  0.55442624    -1.32100
O53         O  0.42895546  0.41581096  0.59683496    -0.97600
C54         C  0.48800973  0.38924679  0.49103731     1.07200
Mn55       Mn  0.06005915  0.01021962  0.55438056     1.48600
O56         O  0.46311573  0.38376550  0.50695954    -0.86800
Mn57       Mn  0.41342290  0.43339601  0.55458310     1.49600
O58         O  0.41933050  0.99677515  0.60606820    -0.90700
C59         C  0.48501020  0.02853421  0.47422609     1.20400
C60         C  0.39910967  0.47141647  0.61988357     1.12400
Mn61       Mn  0.48634147  0.47516149  0.50684723     1.81000
O62         O  0.04607508  0.47676363  0.59569834    -0.95900
Mn63       Mn  0.45146374  0.01279402  0.55577487     1.49300
C64         C  0.39855864  0.47240306  0.49135915     1.08900
Mn65       Mn  0.02752797  0.44322057  0.55411294     1.49900
C66         C  0.48894264  0.39057797  0.61993849     1.11800
O67         O  0.42886861  0.41527964  0.51364210    -1.01700
O68         O  0.07776514  0.04330275  0.60382755    -0.91300
C69         C  0.43325527  0.41988516  0.47416049     1.23100
O70         O  0.04555551  0.47681060  0.51265443    -1.02100
O71         O  0.05130009  0.06640036  0.60301026    -0.89500
O72         O  0.01346821  0.41077927  0.60367698    -0.89100
O73         O  0.39483049  0.44708359  0.60351617    -0.89100
Mn74       Mn  0.01846516  0.04787051  0.55449511     1.47900
O75         O  0.01801983  0.47551882  0.64727345    -0.77600
C76         C  0.43393685  0.42119372  0.63617578     1.16200
O77         O  0.48571542  0.00589222  0.46184245    -0.76300
O78         O  0.48706344  0.00575895  0.64791325    -0.75900
Mn79       Mn  0.44810443  0.40160561  0.55566303     1.51100
O80         O  0.01282563  0.41060683  0.50465946    -0.88300
O81         O  0.48520202  0.03216277  0.59624127    -0.95800
O82         O  0.46371606  0.38527579  0.60564588    -0.90800
C83         C  0.48562257  0.02802649  0.63568606     1.14000
C84         C  0.99947878  0.07838066  0.73402948    -0.27500
C85         C  0.48518781  0.09386926  0.72010083     0.06100
C86         C  0.46953144  0.08603450  0.67988835     0.25800
C87         C  0.46924484  0.06399552  0.65349069    -0.12000
C88         C  0.48415276  0.04900149  0.66675553    -0.25900
C89         C  0.99890567  0.05596506  0.70766040     0.36600
C90         C  0.48770749  0.11909494  0.74623792     0.06100
F91         F  0.45460516  0.09979500  0.66597026    -0.19700
H92         H  0.45751420  0.05882320  0.62217985     0.16000
F93         F  0.01407976  0.04234767  0.72095891    -0.23400
H94         H  0.01196733  0.08435408  0.76468836     0.17800
C95         C  0.48110327  0.11610640  0.79157272     0.25800
C96         C  0.48284413  0.14002778  0.81528734    -0.11900
C97         C  0.49105746  0.16730989  0.79422575    -0.26000
C98         C  0.49824589  0.17034630  0.74887540     0.36700
C99         C  0.49661985  0.14648892  0.72539006    -0.27600
F100        F  0.97196723  0.08976849  0.81257200    -0.19700
H101        H  0.47705182  0.13688984  0.85002114     0.16000
F102        F  0.50693902  0.19630175  0.72695436    -0.23400
H103        H  0.50239450  0.14944125  0.69062442     0.17800
C104        C  0.01721978  0.35645762  0.70441275    -0.27500
C105        C  0.49057376  0.33105587  0.71736633     0.06100
C106        C  0.46330849  0.32685373  0.70150474     0.25800
C107        C  0.46289614  0.34697446  0.67120491    -0.12000
C108        C  0.48966212  0.37163768  0.65616174    -0.25900
C109        C  0.01688788  0.37670162  0.67429096     0.36600
C110        C  0.49151826  0.30797936  0.74474008     0.06100
F111        F  0.43719328  0.30238619  0.71331970    -0.19700
H112        H  0.44157733  0.34256157  0.65834054     0.16000
F113        F  0.04329315  0.40067287  0.66218853    -0.23400
H114        H  0.03839441  0.36021791  0.71694256     0.17800
C115        C  0.50741808  0.29432134  0.73010784     0.25800
C116        C  0.50708064  0.27141139  0.75476297    -0.11900
C117        C  0.49117301  0.26194901  0.79464075    -0.26000
C118        C  0.47555680  0.27590315  0.80956891     0.36700
C119        C  0.47564243  0.29864222  0.78458765    -0.27600
F120        F  0.02244640  0.30246275  0.69118349    -0.19700
H121        H  0.01925886  0.26101299  0.74259422     0.16000
F122        F  0.45927487  0.26681811  0.84731853    -0.23400
H123        H  0.46317669  0.30887964  0.79617301     0.17800
C124        C  0.00098426  0.07834098  0.37353497    -0.27500
C125        C  0.49063027  0.09721316  0.38815811     0.06100
C126        C  0.47748387  0.09247673  0.43012674     0.25800
C127        C  0.47524904  0.06968352  0.45721729    -0.12000
C128        C  0.48588998  0.05097300  0.44309484    -0.25900
C129        C  0.99880887  0.05544782  0.40085138     0.36600
C130        C  0.49351245  0.12189997  0.35996417     0.06100
F131        F  0.46650960  0.10975215  0.44479082    -0.19700
H132        H  0.46517715  0.06669881  0.48954673     0.16000
F133        F  0.01041020  0.03861198  0.38677234    -0.23400
H134        H  0.01135067  0.08180787  0.34136634     0.17800
C135        C  0.00797163  0.15127167  0.37599328     0.25800
C136        C  0.00799857  0.17401487  0.35127195    -0.11900
C137        C  0.49390147  0.16809720  0.30982640    -0.26000
C138        C  0.48052016  0.13886279  0.29288543     0.36700
C139        C  0.48039293  0.11601297  0.31786363    -0.27600
F140        F  0.02194548  0.15794747  0.41578854    -0.19700
H141        H  0.01894878  0.19634356  0.36484478     0.16000
F142        F  0.46636970  0.13199171  0.25324987    -0.23400
H143        H  0.46913159  0.09348523  0.30501696     0.17800
C144        C  0.49847530  0.31161121  0.32237188    -0.27500
C145        C  0.49364524  0.30731424  0.36804257     0.06100
C146        C  0.99028357  0.28123543  0.38745610     0.25800
C147        C  0.99086001  0.25939533  0.36142453    -0.12000
C148        C  0.49467425  0.26296717  0.31534166    -0.25900
C149        C  0.49891281  0.28962793  0.29606871     0.36600
C150        C  0.49150621  0.32959213  0.39566714     0.06100
F151        F  0.98655485  0.27696785  0.43178167    -0.19700
H152        H  0.98779573  0.23939693  0.37752181     0.16000
F153        F  0.50357149  0.29461826  0.25201553    -0.23400
H154        H  0.50138795  0.33177657  0.30703403     0.17800
C155        C  0.51642636  0.35794770  0.40269923     0.25800
C156        C  0.51485098  0.37758412  0.43268679    -0.11900
C157        C  0.48833592  0.36938150  0.45597513    -0.26000
C158        C  0.46296598  0.34132593  0.44716467     0.36700
C159        C  0.46473703  0.32166129  0.41753341    -0.27600
F160        F  0.04266485  0.36608510  0.38215052    -0.19700
H161        H  0.53467203  0.39901490  0.43837483     0.16000
F162        F  0.43675009  0.33222226  0.46839001    -0.23400
H163        H  0.44529108  0.29985856  0.41226076     0.17800
C164        C  0.49494859  0.19690058  0.00675473    -0.27500
C165        C  0.48152440  0.21098713  0.02861535     0.06100
C166        C  0.46952768  0.22520233  0.00320730     0.25800
C167        C  0.47135538  0.22554035  0.95709222    -0.12000
C168        C  0.48468276  0.21132448  0.93532908    -0.25900
C169        C  0.49625944  0.19673191  0.96068726     0.36600
C170        C  0.48103518  0.21138136  0.07774180     0.06100
F171        F  0.45555974  0.23831554  0.02280289    -0.19700
H172        H  0.46200767  0.23668409  0.93834555     0.16000
F173        F  0.00977856  0.18315345  0.94118083    -0.23400
H174        H  0.00497718  0.18641442  0.02542468     0.17800
C175        C  0.47356778  0.18550185  0.10233220     0.25800
C176        C  0.47558306  0.18664248  0.14839104    -0.11900
C177        C  0.48467659  0.21345958  0.17119783    -0.26000
C178        C  0.49110796  0.23914924  0.14661787     0.36700
C179        C  0.48949758  0.23806804  0.10045098    -0.27600
F180        F  0.46411365  0.15896720  0.08188071    -0.19700
H181        H  0.46998571  0.16637089  0.16619966     0.16000
F182        F  0.99993294  0.26562113  0.16679419    -0.23400
H183        H  0.49577133  0.25841760  0.08239060     0.17800
C184        C  0.33403355  0.44195804  0.70008440    -0.27500
C185        C  0.33666042  0.46855833  0.71558450     0.06100
C186        C  0.36136731  0.99580633  0.70324262     0.25800
C187        C  0.38219994  0.99653699  0.67339460    -0.12000
C188        C  0.37887081  0.47009567  0.65555522    -0.25900
C189        C  0.35507035  0.44254999  0.67073485     0.36600
C190        C  0.31295076  0.46791552  0.74297868     0.06100
F191        F  0.36461163  0.02182610  0.71859547    -0.19700
H192        H  0.40057786  0.01806360  0.66331929     0.16000
F193        F  0.35153155  0.41617098  0.65648014    -0.23400
H194        H  0.31529069  0.42063942  0.71023666     0.17800
C195        C  0.28580096  0.46149979  0.72369738     0.25800
C196        C  0.26405687  0.46283318  0.74900857    -0.11900
C197        C  0.26889147  0.47043746  0.79411102    -0.26000
C198        C  0.29613771  0.47646838  0.81338774     0.36700
C199        C  0.31795401  0.47531402  0.78783230    -0.27600
F200        F  0.28071103  0.45480045  0.68006362    -0.19700
H201        H  0.24340196  0.45798844  0.73304704     0.16000
F202        F  0.30216948  0.48426111  0.85650421    -0.23400
H203        H  0.33897773  0.48051333  0.80293586     0.17800
C204        C  0.14750979  0.46568478  0.72922956    -0.27500
C205        C  0.13003222  0.47584016  0.74954309     0.06100
C206        C  0.13496763  0.98410764  0.79431805     0.25800
C207        C  0.15770577  0.98298714  0.81773833    -0.12000
C208        C  0.17590495  0.47370514  0.79686278    -0.25900
C209        C  0.17024669  0.46473884  0.75228986     0.36600
C210        C  0.10744433  0.47832399  0.72283918     0.06100
F211        F  0.11861826  0.99428363  0.81486631    -0.19700
H212        H  0.16149139  0.99002658  0.85194719     0.16000
F213        F  0.18645641  0.45480570  0.73071783    -0.23400
H214        H  0.14361238  0.45855742  0.69504092     0.16700
C215        C  0.11546152  0.49276113  0.68161602     0.25800
C216        C  0.09383890  0.49231432  0.65391091    -0.11900
C217        C  0.06384825  0.47806658  0.66691965    -0.26000
C218        C  0.05582493  0.46461063  0.70888922     0.36700
C219        C  0.07754680  0.46467223  0.73657568    -0.27600
F220        F  0.14428459  0.50715903  0.66792953    -0.19700
H221        H  0.10060477  0.50311889  0.62193910     0.16000
F222        F  0.02688541  0.95002799  0.72205599    -0.23400
H223        H  0.07083155  0.95310992  0.76801727     0.17800
C224        C  0.35894917  0.49992078  0.41537431    -0.27500
C225        C  0.33557789  0.47314086  0.39856539     0.06100
C226        C  0.33434908  0.44619384  0.40954825     0.25800
C227        C  0.35544538  0.44609312  0.43848241    -0.12000
C228        C  0.37822642  0.47286867  0.45689621    -0.25900
C229        C  0.38006169  0.49994381  0.44404968     0.36600
C230        C  0.31201797  0.47368751  0.37132961     0.06100
F231        F  0.31194735  0.41985070  0.39401852    -0.19700
H232        H  0.35342608  0.42493712  0.44735634     0.16000
F233        F  0.40167301  0.02657312  0.46009164    -0.23400
H234        H  0.36056592  0.02095735  0.40680527     0.17800
C235        C  0.29658623  0.48752046  0.38740485     0.25800
C236        C  0.27485293  0.48867388  0.36155103    -0.11900
C237        C  0.26826887  0.47649677  0.31876879    -0.26000
C238        C  0.28370980  0.46255213  0.30269827     0.36700
C239        C  0.30520588  0.46102697  0.32894367    -0.27600
F240        F  0.30231895  0.49968447  0.42843965    -0.19700
H241        H  0.26346386  0.49956805  0.37491450     0.16000
F242        F  0.27784962  0.45004166  0.26191999    -0.23400
H243        H  0.31690661  0.45036688  0.31589161     0.17800
C244        C  0.12982072  0.48065666  0.31315796    -0.27500
C245        C  0.13464385  0.49133178  0.35663350     0.06100
C246        C  0.16307065  0.50269781  0.37554731     0.25800
C247        C  0.18567380  0.50150240  0.35241522    -0.12000
C248        C  0.18051345  0.48930768  0.30975845    -0.25900
C249        C  0.15253043  0.47964618  0.28975368     0.36600
C250        C  0.10929092  0.48681006  0.38438145     0.06100
F251        F  0.16863838  0.01410269  0.41704629    -0.19700
H252        H  0.20709947  0.00963420  0.36825479     0.16000
F253        F  0.14639276  0.46746440  0.24874291    -0.23400
H254        H  0.10798512  0.47157868  0.29822961     0.17800
C255        C  0.09064909  0.49811978  0.37256716     0.25800
C256        C  0.06734839  0.49380465  0.40068739    -0.11900
C257        C  0.06272641  0.47851922  0.44094697    -0.26000
C258        C  0.08082575  0.46644852  0.45176087     0.36700
C259        C  0.10368198  0.47044492  0.42361122    -0.27600
F260        F  0.09576624  0.51436534  0.33505126    -0.19700
H261        H  0.05380357  0.50350327  0.39198672     0.16000
F262        F  0.07650323  0.45078076  0.48969387    -0.23400
H263        H  0.11730380  0.46089533  0.43267342     0.17800
C264        C  0.21447230  0.49246005  0.10163330    -0.27500
C265        C  0.22554250  0.47617262  0.07993632     0.06100
C266        C  0.23729947  0.46174815  0.10542499     0.25800
C267        C  0.23759348  0.46343540  0.15162115    -0.12000
C268        C  0.22592852  0.47924458  0.17326923    -0.25900
C269        C  0.21450239  0.49393295  0.14767552     0.36600
C270        C  0.22508975  0.47488186  0.03085463     0.06100
F271        F  0.24777191  0.44535945  0.08580240    -0.19700
H272        H  0.24640669  0.45184981  0.17049086     0.16000
F273        F  0.20403619  0.01040995  0.16695264    -0.23400
H274        H  0.20610468  0.00443662  0.08280964     0.17800
C275        C  0.19936016  0.46888569  0.00702533     0.25800
C276        C  0.19957142  0.46909812  0.96086289    -0.11900
C277        C  0.22527880  0.47496748  0.93725033    -0.26000
C278        C  0.25095728  0.48066147  0.96119267     0.36700
C279        C  0.25078471  0.48070061  0.00741306    -0.27600
F280        F  0.17375720  0.46225598  0.02833147    -0.19700
H281        H  0.17934802  0.46429598  0.94362995     0.16000
F282        F  0.27651699  0.48682580  0.94024203    -0.23400
H283        H  0.27102883  0.48589679  0.02492989     0.17800
C284        C  0.38611982  0.39089883  0.73840518    -0.27500
C285        C  0.36770861  0.36097112  0.72623250     0.06100
C286        C  0.37314450  0.35058411  0.68656055     0.25800
C287        C  0.39540801  0.37026183  0.65813028    -0.12000
C288        C  0.41293128  0.40050083  0.66906486    -0.25900
C289        C  0.40880301  0.41063888  0.71007216     0.36600
C290        C  0.34166117  0.34071569  0.75310342     0.06100
F291        F  0.35652936  0.32141307  0.67503497    -0.19700
H292        H  0.39867367  0.36191598  0.62710655     0.16000
F293        F  0.42546313  0.43980256  0.72159631    -0.23400
H294        H  0.38217202  0.39917054  0.76897952     0.17800
C295        C  0.34475795  0.33455002  0.79727914     0.25800
C296        C  0.32016154  0.31235430  0.82012514    -0.11900
C297        C  0.29225234  0.29602433  0.79912685    -0.26000
C298        C  0.28898132  0.30367554  0.75567522     0.36700
C299        C  0.31350298  0.32584013  0.73306968    -0.27600
F300        F  0.37180733  0.34871444  0.81739844    -0.19700
H301        H  0.32331228  0.30711399  0.85364667     0.16000
F302        F  0.26228134  0.28953031  0.73460770    -0.23400
H303        H  0.31070636  0.33090744  0.69924782     0.17800
C304        C  0.16642407  0.18428705  0.72616883    -0.27500
C305        C  0.15351241  0.15440609  0.73972318     0.06100
C306        C  0.16221167  0.14792377  0.78029836     0.25800
C307        C  0.18386221  0.17088865  0.80630164    -0.12000
C308        C  0.19752617  0.20069678  0.79210229    -0.25900
C309        C  0.18830267  0.20726052  0.75194302     0.36600
C310        C  0.13180338  0.13009359  0.71074899     0.06100
F311        F  0.14968947  0.11935277  0.79483264    -0.19700
H312        H  0.19050288  0.16523785  0.83710212     0.16000
F313        F  0.20023959  0.23584947  0.73769211    -0.23400
H314        H  0.16003654  0.18978205  0.69500992     0.17800
C315        C  0.10661456  0.13031015  0.69435003     0.25800
C316        C  0.08698990  0.10789802  0.66568494    -0.11900
C317        C  0.09219133  0.08494558  0.65205937    -0.26000
C318        C  0.11724008  0.08451997  0.66925500     0.36700
C319        C  0.13670628  0.10685118  0.69834488    -0.27600
F320        F  0.10090581  0.15216897  0.70611048    -0.19700
H321        H  0.06793896  0.10896570  0.65345924     0.16000
F322        F  0.12348103  0.06307685  0.65733871    -0.23400
H323        H  0.15614914  0.10642911  0.71035628     0.17800
C324        C  0.38248242  0.38497308  0.37541611    -0.27500
C325        C  0.36592859  0.35500006  0.38890324     0.06100
C326        C  0.37360249  0.34629367  0.42846855     0.25800
C327        C  0.39612267  0.36752614  0.45526562    -0.12000
C328        C  0.41194901  0.39769932  0.44270748    -0.25900
C329        C  0.40547458  0.40621203  0.40197621     0.36600
C330        C  0.34051063  0.33293460  0.36204686     0.06100
F331        F  0.35936532  0.31723043  0.44117738    -0.19700
H332        H  0.40104653  0.36038406  0.48622342     0.16000
F333        F  0.42024100  0.43518944  0.38895965    -0.23400
H334        H  0.37701365  0.39206896  0.34488514     0.17800
C335        C  0.31252143  0.31442462  0.38154288     0.25800
C336        C  0.28916222  0.29252805  0.35657502    -0.11900
C337        C  0.29303907  0.28877639  0.31154450    -0.26000
C338        C  0.32078524  0.30811189  0.29166488     0.36700
C339        C  0.34423175  0.32995530  0.31681736    -0.27600
F340        F  0.30764473  0.31766686  0.42469494    -0.19700
H341        H  0.26798364  0.27842360  0.37270048     0.16000
F342        F  0.32572754  0.30538065  0.24838657    -0.23400
H343        H  0.36560049  0.34407851  0.30120116     0.17800
C344        C  0.15684503  0.14289620  0.32053967    -0.27500
C345        C  0.15350122  0.14824818  0.36496067     0.06100
C346        C  0.17269067  0.17635767  0.38325735     0.25800
C347        C  0.19491969  0.19877515  0.35753983    -0.12000
C348        C  0.19849139  0.19374933  0.31292392    -0.25900
C349        C  0.17899692  0.16551806  0.29444346     0.36600
C350        C  0.13043755  0.12454312  0.39281090     0.06100
F351        F  0.17037304  0.18191578  0.42643389    -0.19700
H352        H  0.20940770  0.22016903  0.37281475     0.16000
F353        F  0.18160745  0.15947299  0.25164409    -0.23400
H354        H  0.14219934  0.12123580  0.30609894     0.17800
C355        C  0.10870060  0.12882300  0.41338250     0.25800
C356        C  0.08892392  0.10787643  0.44352307    -0.11900
C357        C  0.09077474  0.08249949  0.45441424    -0.26000
C358        C  0.11217936  0.07787775  0.43274161     0.36700
C359        C  0.13159397  0.09865578  0.40186085    -0.27600
F360        F  0.10705167  0.15365505  0.40500103    -0.19700
H361        H  0.07277339  0.11213241  0.45942878     0.16000
F362        F  0.11506219  0.05387459  0.44215024    -0.23400
H363        H  0.14839745  0.09518791  0.38637838     0.17800
C364        C  0.23140794  0.21338591  0.10065517    -0.27500
C365        C  0.24790330  0.24026638  0.07742008     0.06100
C366        C  0.26344546  0.26711611  0.10107480     0.25800
C367        C  0.26285534  0.26685648  0.14720305    -0.12000
C368        C  0.24639928  0.23993068  0.17058852    -0.25900
C369        C  0.23054142  0.21311671  0.14674826     0.36600
C370        C  0.24781241  0.24008510  0.02857671     0.06100
F371        F  0.27837021  0.29367806  0.07962626    -0.19700
H372        H  0.27489504  0.28787118  0.16461384     0.16000
F373        F  0.21467583  0.18652151  0.16777398    -0.23400
H374        H  0.21928767  0.19247650  0.08298523     0.17800
C375        C  0.27454414  0.25456888  0.00440068     0.25800
C376        C  0.27380709  0.25498230  0.95827793    -0.11900
C377        C  0.24647565  0.24064110  0.93553030    -0.26000
C378        C  0.21981641  0.22546279  0.95978415     0.36700
C379        C  0.22057088  0.22527974  0.00584728    -0.27600
F380        F  0.30133269  0.26794009  0.02531131    -0.19700
H381        H  0.29465723  0.26651633  0.94031737     0.16000
F382        F  0.19293364  0.21190760  0.93918662    -0.23400
H383        H  0.19974198  0.21409631  0.02390439     0.17800
C384        C  0.22303461  0.71803380  0.28723318     0.81000
N385        N  0.24556812  0.74137076  0.30892325    -0.77400
C386        C  0.26836970  0.76406869  0.28666805     0.83400
N387        N  0.26841479  0.76339275  0.24186251    -0.77300
C388        C  0.24604167  0.74021062  0.21947891     0.83500
N389        N  0.22342216  0.71753221  0.24238947    -0.79000
C390        C  0.22189747  0.72445892  0.81852330     0.81000
N391        N  0.22295689  0.72156433  0.86299249    -0.77400
C392        C  0.24593592  0.74292472  0.88698132     0.83400
N393        N  0.26814311  0.76703859  0.86609301    -0.77300
C394        C  0.26731970  0.77025301  0.82173550     0.83500
N395        N  0.24412797  0.74886348  0.79818527    -0.79000
C396        C  0.24553400  0.97874447  0.29165802     0.81000
N397        N  0.22462745  0.98315946  0.31167529    -0.77400
C398        C  0.20388704  0.98563597  0.28749576     0.83400
N399        N  0.20450708  0.98416754  0.24284283    -0.77300
C400        C  0.22539554  0.98013846  0.22217717     0.83500
N401        N  0.24571407  0.97715364  0.24678085    -0.79000
C402        C  0.24556984  0.97233130  0.81992590     0.81000
N403        N  0.22266478  0.97248588  0.79857093    -0.77400
C404        C  0.20079750  0.97376527  0.82115919     0.83400
N405        N  0.20200843  0.97492503  0.86599863    -0.77300
C406        C  0.22476335  0.97472812  0.88812217     0.83500
N407        N  0.24645465  0.97344519  0.86477416    -0.79000
C408        C  0.49359487  0.73844443  0.28853737     0.81000
N409        N  0.49024649  0.73757065  0.24390771    -0.77400
C410        C  0.48798013  0.71429341  0.22007072     0.83400
N411        N  0.48900941  0.69170620  0.24145700    -0.77300
C412        C  0.49256870  0.69241026  0.28598267     0.83500
N413        N  0.49480445  0.71580987  0.30908380    -0.79000
C414        C  0.49032257  0.73700441  0.81936246     0.81000
N415        N  0.48764760  0.73544512  0.86401032    -0.77400
C416        C  0.48694481  0.71243331  0.88655214     0.83400
N417        N  0.48843091  0.69062396  0.86390076    -0.77300
C418        C  0.49088546  0.69182424  0.81914252     0.83500
N419        N  0.49198470  0.71519866  0.79726408    -0.79000
O420        O  0.41837287  0.49717431  0.50738798    -0.87400
C421        C  0.07242412  0.56328757  0.61793657     1.12600
O422        O  0.45511756  0.97401404  0.55495823    -1.35300
O423        O  0.05068897  0.56604374  0.50483650    -0.88900
O424        O  0.39489557  0.94743620  0.50458330    -0.89600
O425        O  0.45555346  0.94384909  0.46196445    -0.78400
O426        O  0.48462950  0.53244813  0.51374994    -1.00500
C427        C  0.04078002  0.97695170  0.47321324     1.22600
O428        O  0.48727348  0.94441494  0.55454146    -1.35400
Mn429      Mn  0.48700474  0.97515814  0.60236186     1.82100
O430        O  0.01742805  0.97649237  0.46153406    -0.77500
O431        O  0.07699185  0.54273949  0.50503616    -0.86900
C432        C  0.04155434  0.97658173  0.63520840     1.13700
C433        C  0.07149256  0.56232705  0.48995337     1.08400
O434        O  0.45687728  0.94463461  0.64740279    -0.78400
O435        O  0.01737395  0.50653291  0.55442498    -1.32100
O436        O  0.42894468  0.91579924  0.59679878    -0.97600
C437        C  0.48801896  0.88924307  0.49103250     1.07200
Mn438      Mn  0.06005225  0.51022938  0.55438608     1.48600
O439        O  0.46312634  0.88375781  0.50696222    -0.86800
Mn440      Mn  0.41342454  0.93338391  0.55453007     1.49600
O441        O  0.41934274  0.49681057  0.60602339    -0.90700
C442        C  0.48502045  0.52853074  0.47420216     1.20400
C443        C  0.39907715  0.97136678  0.61985538     1.12400
Mn444      Mn  0.48634373  0.97516452  0.50684284     1.81000
O445        O  0.04607718  0.97675731  0.59570094    -0.95900
Mn446      Mn  0.45147579  0.51280853  0.55574412     1.49300
C447        C  0.39856584  0.97240396  0.49134375     1.08900
Mn448      Mn  0.02751801  0.94321111  0.55412151     1.49900
C449        C  0.48894467  0.89058014  0.61993306     1.11800
O450        O  0.42888751  0.91527712  0.51361064    -1.01700
O451        O  0.07774405  0.54330987  0.60383606    -0.91300
C452        C  0.43327715  0.91988317  0.47413103     1.23100
O453        O  0.04555052  0.97679675  0.51265312    -1.02100
O454        O  0.05127526  0.56640333  0.60298204    -0.89500
O455        O  0.01345524  0.91077504  0.60369455    -0.89100
O456        O  0.39480322  0.94705164  0.60343088    -0.89100
Mn457      Mn  0.01843744  0.54785934  0.55448422     1.47900
O458        O  0.01802605  0.97552828  0.64727318    -0.77600
C459        C  0.43391148  0.92117924  0.63614155     1.16200
O460        O  0.48571623  0.50588243  0.46182822    -0.76300
O461        O  0.48707512  0.50578127  0.64789773    -0.75900
Mn462      Mn  0.44810917  0.90160030  0.55564723     1.51100
O463        O  0.01280240  0.91059136  0.50467578    -0.88300
O464        O  0.48521022  0.53218200  0.59621897    -0.95800
O465        O  0.46371687  0.88527792  0.60564555    -0.90800
C466        C  0.48562807  0.52804460  0.63566513     1.14000
C467        C  0.99946664  0.57834955  0.73404991    -0.27500
C468        C  0.48514372  0.59385930  0.72008369     0.06100
C469        C  0.46946903  0.58600143  0.67988643     0.25800
C470        C  0.46920001  0.56397213  0.65348600    -0.12000
C471        C  0.48414347  0.54901061  0.66673465    -0.25900
C472        C  0.99887806  0.55592690  0.70767915     0.36600
C473        C  0.48765226  0.61908197  0.74621607     0.06100
F474        F  0.45450973  0.59973146  0.66598424    -0.19700
H475        H  0.45745702  0.55878356  0.62218501     0.16000
F476        F  0.01401432  0.54227448  0.72099747    -0.23400
H477        H  0.01193683  0.58430046  0.76472484     0.17800
C478        C  0.48108557  0.61610638  0.79156315     0.25800
C479        C  0.48283148  0.64002954  0.81527912    -0.11900
C480        C  0.49101219  0.66730065  0.79420709    -0.26000
C481        C  0.49815556  0.67032161  0.74884012     0.36700
C482        C  0.49652583  0.64646310  0.72535421    -0.27600
F483        F  0.97194533  0.58975745  0.81255918    -0.19700
H484        H  0.47707238  0.63690231  0.85002497     0.16000
F485        F  0.50680862  0.69626298  0.72690184    -0.23400
H486        H  0.50227062  0.64940596  0.69057756     0.17800
C487        C  0.01719195  0.85645139  0.70444236    -0.27500
C488        C  0.49058514  0.83107104  0.71737283     0.06100
C489        C  0.46331835  0.82686543  0.70151242     0.25800
C490        C  0.46290288  0.84698253  0.67120925    -0.12000
C491        C  0.48966724  0.87164539  0.65616158    -0.25900
C492        C  0.01686361  0.87669756  0.67432102     0.36600
C493        C  0.49153186  0.80799737  0.74474970     0.06100
F494        F  0.43720464  0.80239747  0.71333132    -0.19700
H495        H  0.44158302  0.84256657  0.65834509     0.16000
F496        F  0.04326964  0.90067404  0.66223510    -0.23400
H497        H  0.03836495  0.86021418  0.71698405     0.17800
C498        C  0.50743059  0.79433798  0.73011840     0.25800
C499        C  0.50709036  0.77142676  0.75477364    -0.11900
C500        C  0.49118031  0.76196434  0.79464939    -0.26000
C501        C  0.47556579  0.77592008  0.80957680     0.36700
C502        C  0.47565506  0.79866105  0.78459646    -0.27600
F503        F  0.02243614  0.80247032  0.69119025    -0.19700
H504        H  0.01925362  0.76101498  0.74258356     0.16000
F505        F  0.45927972  0.76683279  0.84732245    -0.23400
H506        H  0.46318956  0.80889910  0.79618018     0.17800
C507        C  0.00096017  0.57833295  0.37353526    -0.27500
C508        C  0.49065921  0.59721066  0.38811780     0.06100
C509        C  0.47751783  0.59248363  0.43008847     0.25800
C510        C  0.47527612  0.56968961  0.45718351    -0.12000
C511        C  0.48590581  0.55096907  0.44306412    -0.25900
C512        C  0.99877892  0.55543494  0.40084677     0.36600
C513        C  0.49354382  0.62189664  0.35992001     0.06100
F514        F  0.46655478  0.60976934  0.44474981    -0.19700
H515        H  0.46520793  0.56671237  0.48951441     0.16000
F516        F  0.01036696  0.53858983  0.38675611    -0.23400
H517        H  0.01131961  0.58179510  0.34136199     0.17800
C518        C  0.00796674  0.65127669  0.37600323     0.25800
C519        C  0.00799649  0.67402118  0.35128062    -0.11900
C520        C  0.49391248  0.66809050  0.30980155    -0.26000
C521        C  0.48051562  0.63885282  0.29286926     0.36700
C522        C  0.48039835  0.61600456  0.31783804    -0.27600
F523        F  0.02194091  0.65795225  0.41579817    -0.19700
H524        H  0.01894757  0.69635010  0.36485309     0.16000
F525        F  0.46633845  0.63197709  0.25325475    -0.23400
H526        H  0.46912237  0.59347387  0.30500186     0.17800
C527        C  0.49844889  0.81159023  0.32236574    -0.27500
C528        C  0.49364287  0.80730329  0.36804138     0.06100
C529        C  0.99021696  0.78121246  0.38744935     0.25800
C530        C  0.99080159  0.75937602  0.36141929    -0.12000
C531        C  0.49466978  0.76295548  0.31533930    -0.25900
C532        C  0.49888544  0.78960682  0.29606220     0.36600
C533        C  0.49150493  0.82958100  0.39566749     0.06100
F534        F  0.98645785  0.77693096  0.43176944    -0.19700
H535        H  0.98771830  0.73936909  0.37751221     0.16000
F536        F  0.50351960  0.79458771  0.25200388    -0.23400
H537        H  0.50134327  0.83174766  0.30702468     0.17800
C538        C  0.51642049  0.85794371  0.40267408     0.25800
C539        C  0.51484875  0.87758187  0.43266222    -0.11900
C540        C  0.48834159  0.86937369  0.45597530    -0.26000
C541        C  0.46297508  0.84130998  0.44719135     0.36700
C542        C  0.46474289  0.82164394  0.41755972    -0.27600
F543        F  0.04264030  0.86605814  0.38218923    -0.19700
H544        H  0.53466633  0.89901901  0.43833017     0.16000
F545        F  0.43676664  0.83220024  0.46844295    -0.23400
H546        H  0.44530051  0.79983562  0.41230694     0.17800
C547        C  0.49494651  0.69690402  0.00675055    -0.27500
C548        C  0.48151242  0.71098088  0.02861140     0.06100
C549        C  0.46950878  0.72518971  0.00320428     0.25800
C550        C  0.47133950  0.72553153  0.95708975    -0.12000
C551        C  0.48467623  0.71132515  0.93532623    -0.25900
C552        C  0.49626026  0.69673893  0.96068281     0.36600
C553        C  0.48101923  0.71137200  0.07773733     0.06100
F554        F  0.45553062  0.73829227  0.02280049    -0.19700
H555        H  0.46198588  0.73666988  0.93834326     0.16000
F556        F  0.00983594  0.68318640  0.94117115    -0.23400
H557        H  0.00504999  0.68645907  0.02541665     0.17800
C558        C  0.47355380  0.68549212  0.10232491     0.25800
C559        C  0.47556519  0.68663040  0.14838399    -0.11900
C560        C  0.48465394  0.71344571  0.17119322    -0.26000
C561        C  0.49108169  0.73913524  0.14661586     0.36700
C562        C  0.48947452  0.73805623  0.10044890    -0.27600
F563        F  0.46410648  0.65895978  0.08187013    -0.19700
H564        H  0.46997045  0.66635878  0.16619083     0.16000
F565        F  0.99996142  0.76564022  0.16679528    -0.23400
H566        H  0.49574573  0.75840593  0.08239009     0.17800
C567        C  0.33368505  0.94188435  0.69945611    -0.27500
C568        C  0.33659538  0.96848251  0.71553528     0.06100
C569        C  0.36114162  0.49591682  0.70270390     0.25800
C570        C  0.38198555  0.49665697  0.67287415    -0.12000
C571        C  0.37880823  0.97000046  0.65551228    -0.25900
C572        C  0.35472141  0.94245885  0.67012966     0.36600
C573        C  0.31291559  0.96789445  0.74296910     0.06100
F574        F  0.36409245  0.52193224  0.71750722    -0.19700
H575        H  0.40013377  0.51819364  0.66234889     0.16000
F576        F  0.35089701  0.91607842  0.65532831    -0.23400
H577        H  0.31473057  0.92058368  0.70916437     0.17800
C578        C  0.28553777  0.96093233  0.72391140     0.25800
C579        C  0.26380947  0.96229576  0.74922434    -0.11900
C580        C  0.26887582  0.97044699  0.79411242    -0.26000
C581        C  0.29633647  0.97701242  0.81318624     0.36700
C582        C  0.31814346  0.97584976  0.78762341    -0.27600
F583        F  0.28021078  0.95370237  0.68046156    -0.19700
H584        H  0.24297591  0.95703062  0.73344343     0.16000
F585        F  0.30258261  0.98536001  0.85608310    -0.23400
H586        H  0.33932943  0.98146085  0.80256566     0.17800
C587        C  0.14748195  0.96566713  0.72926110    -0.27500
C588        C  0.13000685  0.97582488  0.74957430     0.06100
C589        C  0.13498732  0.48411391  0.79429084     0.25800
C590        C  0.15771724  0.48298223  0.81771672    -0.12000
C591        C  0.17589401  0.97371138  0.79688129    -0.25900
C592        C  0.17022656  0.96473282  0.75231443     0.36600
C593        C  0.10742398  0.97831229  0.72286644     0.06100
F594        F  0.11863907  0.49429066  0.81484010    -0.19700
H595        H  0.16149641  0.49001340  0.85192932     0.16000
F596        F  0.18643723  0.95480213  0.73073943    -0.23400
H597        H  0.14357964  0.95853361  0.69507542     0.16700
C598        C  0.11545131  0.99275958  0.68165127     0.25800
C599        C  0.09383587  0.99231890  0.65393815    -0.11900
C600        C  0.06384190  0.97806121  0.66692838    -0.26000
C601        C  0.05580709  0.96459213  0.70888843     0.36700
C602        C  0.07752292  0.96465217  0.73658609    -0.27600
F603        F  0.14427719  0.00715789  0.66797807    -0.19700
H604        H  0.10060885  0.00313181  0.62197307     0.16000
F605        F  0.02690811  0.45005846  0.72207922    -0.23400
H606        H  0.07086218  0.45313833  0.76801379     0.17800
C607        C  0.35894872  0.99992873  0.41539055    -0.27500
C608        C  0.33558492  0.97314967  0.39856618     0.06100
C609        C  0.33436486  0.94620415  0.40952783     0.25800
C610        C  0.35546351  0.94610291  0.43845394    -0.12000
C611        C  0.37823697  0.97287627  0.45688357    -0.25900
C612        C  0.38006343  0.99995108  0.44406037     0.36600
C613        C  0.31202471  0.97369372  0.37133080     0.06100
F614        F  0.31196876  0.91986190  0.39398580    -0.19700
H615        H  0.35345039  0.92494720  0.44731155     0.16000
F616        F  0.40167749  0.52656808  0.46006530    -0.23400
H617        H  0.36057371  0.52095048  0.40677343     0.17800
C618        C  0.29657960  0.98751062  0.38741344     0.25800
C619        C  0.27484487  0.98866005  0.36155831    -0.11900
C620        C  0.26827261  0.97649404  0.31876884    -0.26000
C621        C  0.28372674  0.96256452  0.30269222     0.36700
C622        C  0.30522452  0.96104409  0.32893807    -0.27600
F623        F  0.30230042  0.99966221  0.42845618    -0.19700
H624        H  0.26344527  0.99954212  0.37492683     0.16000
F625        F  0.27787893  0.95006495  0.26190683    -0.23400
H626        H  0.31693578  0.95039610  0.31588139     0.17800
C627        C  0.12981268  0.98063072  0.31314843    -0.27500
C628        C  0.13463370  0.99130632  0.35662408     0.06100
C629        C  0.16306100  0.00267605  0.37553792     0.25800
C630        C  0.18566757  0.00148668  0.35240496    -0.12000
C631        C  0.18051000  0.98929255  0.30974757    -0.25900
C632        C  0.15252553  0.97962508  0.28974388     0.36600
C633        C  0.10927954  0.98678519  0.38437130     0.06100
F634        F  0.16865017  0.51412545  0.41705517    -0.19700
H635        H  0.20710541  0.50964624  0.36826486     0.16000
F636        F  0.14638994  0.96744232  0.24873373    -0.23400
H637        H  0.10797697  0.97154976  0.29821987     0.17800
C638        C  0.09064576  0.99810599  0.37256457     0.25800
C639        C  0.06734700  0.99379542  0.40068722    -0.11900
C640        C  0.06271728  0.97850159  0.44094118    -0.26000
C641        C  0.08080869  0.96642030  0.45174699     0.36700
C642        C  0.10366406  0.97041374  0.42359612    -0.27600
F643        F  0.09576903  0.01435746  0.33505349    -0.19700
H644        H  0.05380913  0.00350281  0.39199230     0.16000
F645        F  0.07647931  0.95074516  0.48967402    -0.23400
H646        H  0.11728043  0.96085726  0.43265380     0.17800
C647        C  0.21449315  0.99244708  0.10162541    -0.27500
C648        C  0.22555039  0.97614645  0.07993363     0.06100
C649        C  0.23729400  0.96171145  0.10542712     0.25800
C650        C  0.23758648  0.96340153  0.15162364    -0.12000
C651        C  0.22593240  0.97922322  0.17326533    -0.25900
C652        C  0.21452049  0.99392163  0.14766639     0.36600
C653        C  0.22509758  0.97485643  0.03085212     0.06100
F654        F  0.24775430  0.94531056  0.08580972    -0.19700
H655        H  0.24638935  0.95180858  0.17049866     0.16000
F656        F  0.20400595  0.51040912  0.16696767    -0.23400
H657        H  0.20607191  0.50444044  0.08282100     0.17800
C658        C  0.19937428  0.96888421  0.00702602     0.25800
C659        C  0.19959020  0.96912054  0.96086475    -0.11900
C660        C  0.22529446  0.97498541  0.93724848    -0.26000
C661        C  0.25096390  0.98064434  0.96118631     0.36700
C662        C  0.25078801  0.98066380  0.00740745    -0.27600
F663        F  0.17377278  0.96225698  0.02833448    -0.19700
H664        H  0.17937193  0.96433942  0.94363555     0.16000
F665        F  0.27651668  0.98678891  0.94023100    -0.23400
H666        H  0.27102645  0.98583758  0.02492229     0.17800
C667        C  0.38598363  0.89090040  0.73826317    -0.27500
C668        C  0.36763753  0.86095244  0.72613875     0.06100
C669        C  0.37314118  0.85055668  0.68652932     0.25800
C670        C  0.39541730  0.87023896  0.65811743    -0.12000
C671        C  0.41288411  0.90049115  0.66901090    -0.25900
C672        C  0.40867681  0.91064561  0.70994897     0.36600
C673        C  0.34159124  0.84068214  0.75299958     0.06100
F674        F  0.35658457  0.82137164  0.67505007    -0.19700
H675        H  0.39874042  0.86188549  0.62714178     0.16000
F676        F  0.42527158  0.93982584  0.72141778    -0.23400
H677        H  0.38197935  0.89917980  0.76878565     0.17800
C678        C  0.34468258  0.83457631  0.79720755     0.25800
C679        C  0.32009135  0.81239304  0.82007681    -0.11900
C680        C  0.29219046  0.79601411  0.79907178    -0.26000
C681        C  0.28892573  0.80359484  0.75557036     0.36700
C682        C  0.31344384  0.82574707  0.73294102    -0.27600
F683        F  0.37172419  0.84879196  0.81734497    -0.19700
H684        H  0.32324070  0.80720516  0.85362992     0.16000
F685        F  0.26223709  0.78939190  0.73447587    -0.23400
H686        H  0.31065234  0.83076353  0.69908848     0.17800
C687        C  0.16616393  0.68435682  0.72648026    -0.27500
C688        C  0.15350180  0.65443489  0.73973243     0.06100
C689        C  0.16243902  0.64791139  0.78007994     0.25800
C690        C  0.18407160  0.67086604  0.80611312    -0.12000
C691        C  0.19746693  0.70070921  0.79219419    -0.25900
C692        C  0.18800022  0.70732142  0.75231300     0.36600
C693        C  0.13179724  0.63013922  0.71069550     0.06100
F694        F  0.15016801  0.61931158  0.79438031    -0.19700
H695        H  0.19091203  0.66518991  0.83670912     0.16000
F696        F  0.19965796  0.73595178  0.73840768    -0.23400
H697        H  0.15962046  0.68990593  0.69550419     0.17800
C698        C  0.10669790  0.63044871  0.69407899     0.25800
C699        C  0.08707808  0.60804048  0.66540792    -0.11900
C700        C  0.09217037  0.58497636  0.65201573    -0.26000
C701        C  0.11711501  0.58444967  0.66942048     0.36700
C702        C  0.13659912  0.60679741  0.69847068    -0.27600
F703        F  0.10105391  0.65238319  0.70564234    -0.19700
H704        H  0.06810974  0.60919183  0.65300800     0.16000
F705        F  0.12322712  0.56287377  0.65777425    -0.23400
H706        H  0.15597426  0.60629429  0.71060178     0.17800
C707        C  0.38250696  0.88496445  0.37538791    -0.27500
C708        C  0.36593596  0.85499728  0.38889707     0.06100
C709        C  0.37360130  0.84629391  0.42847222     0.25800
C710        C  0.39613128  0.86752550  0.45525661    -0.12000
C711        C  0.41197323  0.89769482  0.44267885    -0.25900
C712        C  0.40550763  0.90620257  0.40193678     0.36600
C713        C  0.34051539  0.83293311  0.36204538     0.06100
F714        F  0.35934638  0.81723462  0.44120286    -0.19700
H715        H  0.40104820  0.86038631  0.48622299     0.16000
F716        F  0.42029127  0.93517520  0.38889792    -0.23400
H717        H  0.37704573  0.89205702  0.34484689     0.17800
C718        C  0.31252074  0.81443934  0.38153729     0.25800
C719        C  0.28916063  0.79254034  0.35657317    -0.11900
C720        C  0.29304316  0.78877166  0.31155143    -0.26000
C721        C  0.32079519  0.80809107  0.29167570     0.36700
C722        C  0.34424194  0.82993606  0.31682400    -0.27600
F723        F  0.30764019  0.81769923  0.42468074    -0.19700
H724        H  0.26797721  0.77844783  0.37269345     0.16000
F725        F  0.32574321  0.80534094  0.24840666    -0.23400
H726        H  0.36561541  0.84404590  0.30121194     0.17800
C727        C  0.15683811  0.64290188  0.32055569    -0.27500
C728        C  0.15349391  0.64825841  0.36497486     0.06100
C729        C  0.17268676  0.67636862  0.38326716     0.25800
C730        C  0.19491793  0.69878188  0.35754736    -0.12000
C731        C  0.19848982  0.69375134  0.31293372    -0.25900
C732        C  0.17899298  0.66551950  0.29445740     0.36600
C733        C  0.13042843  0.62455622  0.39282805     0.06100
F734        F  0.17037156  0.68193143  0.42644236    -0.19700
H735        H  0.20940799  0.72017634  0.37281935     0.16000
F736        F  0.18160440  0.65946976  0.25166070    -0.23400
H737        H  0.14219051  0.62124078  0.30611791     0.17800
C738        C  0.10870519  0.62884740  0.41342301     0.25800
C739        C  0.08892468  0.60789881  0.44355815    -0.11900
C740        C  0.09075825  0.58250862  0.45442123    -0.26000
C741        C  0.11215089  0.57787766  0.43272996     0.36700
C742        C  0.13156819  0.59865698  0.40185306    -0.27600
F743        F  0.10707217  0.65369110  0.40506801    -0.19700
H744        H  0.07278532  0.61216311  0.45948248     0.16000
F745        F  0.11501876  0.55386299  0.44211565    -0.23400
H746        H  0.14836095  0.59517996  0.38635389     0.17800
C747        C  0.23142398  0.71339415  0.10066125    -0.27500
C748        C  0.24792438  0.74027685  0.07743239     0.06100
C749        C  0.26346307  0.76712421  0.10109229     0.25800
C750        C  0.26286666  0.76686000  0.14721992    -0.12000
C751        C  0.24640587  0.73993202  0.17059915    -0.25900
C752        C  0.23054911  0.71312064  0.14675364     0.36600
C753        C  0.24783138  0.74010119  0.02858979     0.06100
F754        F  0.27838808  0.79368834  0.07964944    -0.19700
H755        H  0.27490460  0.78787308  0.16463503     0.16000
F756        F  0.21467568  0.68652423  0.16777348    -0.23400
H757        H  0.21930392  0.69248649  0.08298679     0.17800
C758        C  0.27456000  0.75459366  0.00440580     0.25800
C759        C  0.27381630  0.75501218  0.95828268    -0.11900
C760        C  0.24648124  0.74066610  0.93554617    -0.26000
C761        C  0.21982615  0.72548058  0.95980924     0.36700
C762        C  0.22058742  0.72529388  0.00586953    -0.27600
F763        F  0.30135126  0.76796768  0.02530854    -0.19700
H764        H  0.29466262  0.76655178  0.94031388     0.16000
F765        F  0.19293893  0.71191999  0.93922411    -0.23400
H766        H  0.19976094  0.71410535  0.02393208     0.17800
C767        C  0.72303285  0.21804155  0.28723069     0.81000
N768        N  0.74557119  0.24137593  0.30891732    -0.77400
C769        C  0.76837407  0.26407072  0.28665893     0.83400
N770        N  0.76841504  0.26339428  0.24185268    -0.77300
C771        C  0.74603647  0.24021413  0.21947240     0.83500
N772        N  0.72341633  0.21753899  0.24238692    -0.79000
C773        C  0.72191980  0.22445281  0.81848110     0.81000
N774        N  0.72295765  0.22156169  0.86295760    -0.77400
C775        C  0.74592661  0.24292093  0.88696497     0.83400
N776        N  0.76814081  0.26703707  0.86609264    -0.77300
C777        C  0.76733732  0.27025411  0.82173416     0.83500
N778        N  0.74416136  0.24886126  0.79816224    -0.79000
C779        C  0.74552707  0.47873045  0.29165747     0.81000
N780        N  0.72462059  0.48314438  0.31167724    -0.77400
C781        C  0.70388249  0.48562594  0.28749932     0.83400
N782        N  0.70450470  0.48416350  0.24284615    -0.77300
C783        C  0.72539315  0.48013575  0.22217833     0.83500
N784        N  0.74570945  0.47714596  0.24677990    -0.79000
C785        C  0.74556497  0.47230563  0.81993316     0.81000
N786        N  0.72266173  0.47246316  0.79857600    -0.77400
C787        C  0.70079300  0.47374250  0.82115962     0.83400
N788        N  0.70200191  0.47490351  0.86599884    -0.77300
C789        C  0.72475566  0.47470689  0.88812587     0.83500
N790        N  0.74644669  0.47342044  0.86478185    -0.79000
C791        C  0.99360481  0.23845117  0.28853604     0.81000
N792        N  0.99025221  0.23757531  0.24390700    -0.77400
C793        C  0.98798078  0.21429542  0.22007082     0.83400
N794        N  0.98900942  0.19170780  0.24145744    -0.77300
C795        C  0.99257271  0.19241403  0.28598265     0.83500
N796        N  0.99481312  0.21581606  0.30908216    -0.79000
C797        C  0.99032298  0.23700597  0.81936507     0.81000
N798        N  0.98764214  0.23544394  0.86401219    -0.77400
C799        C  0.98693234  0.21242859  0.88655356     0.83400
N800        N  0.98841789  0.19061889  0.86390210    -0.77300
C801        C  0.99087864  0.19182225  0.81914461     0.83500
N802        N  0.99198428  0.21519977  0.79726712    -0.79000
O803        O  0.91838167  0.99718544  0.50738862    -0.87400
C804        C  0.57243363  0.06327272  0.61795980     1.12600
O805        O  0.95511457  0.47401163  0.55495560    -1.35300
O806        O  0.55070142  0.06604985  0.50486274    -0.88900
O807        O  0.89488254  0.44742292  0.50459903    -0.89600
O808        O  0.95555077  0.44384270  0.46197121    -0.78400
O809        O  0.98464058  0.03245754  0.51375694    -1.00500
C810        C  0.54078316  0.47695521  0.47321638     1.22600
O811        O  0.98727501  0.44441709  0.55454443    -1.35400
Mn812      Mn  0.98700564  0.47516275  0.60235906     1.82100
O813        O  0.51743043  0.47649350  0.46153539    -0.77500
O814        O  0.57699427  0.04273512  0.50503433    -0.86900
C815        C  0.54155494  0.47658187  0.63521008     1.13700
C816        C  0.57149983  0.06232958  0.48996590     1.08400
O817        O  0.95688427  0.44464134  0.64740594    -0.78400
O818        O  0.51737760  0.00653084  0.55443241    -1.32100
O819        O  0.92894848  0.41579916  0.59681052    -0.97600
C820        C  0.98802555  0.38924807  0.49103488     1.07200
Mn821      Mn  0.56005474  0.01022326  0.55438452     1.48600
O822        O  0.96313181  0.38376098  0.50696420    -0.86800
Mn823      Mn  0.91342179  0.43337963  0.55454415     1.49600
O824        O  0.91934860  0.99682069  0.60602347    -0.90700
C825        C  0.98503005  0.02853938  0.47420901     1.20400
C826        C  0.89908124  0.47137461  0.61985773     1.12400
Mn827      Mn  0.98634084  0.47516140  0.50684098     1.81000
O828        O  0.54607696  0.47675953  0.59570259    -0.95900
Mn829      Mn  0.95148372  0.01281740  0.55574721     1.49300
C830        C  0.89855677  0.47238837  0.49133976     1.08900
Mn831      Mn  0.52752201  0.44321428  0.55412168     1.49900
C832        C  0.98895298  0.39058444  0.61993307     1.11800
O833        O  0.92888251  0.41527149  0.51361897    -1.01700
O834        O  0.57775451  0.04330091  0.60383646    -0.91300
C835        C  0.93327316  0.41987844  0.47413885     1.23100
O836        O  0.54555348  0.47680130  0.51265652    -1.02100
O837        O  0.55128394  0.06639237  0.60301648    -0.89500
O838        O  0.51345977  0.41077547  0.60369096    -0.89100
O839        O  0.89480704  0.44705339  0.60345408    -0.89100
Mn840      Mn  0.51844696  0.04785990  0.55450756     1.47900
O841        O  0.51802598  0.47552729  0.64727541    -0.77600
C842        C  0.93391916  0.42118311  0.63615247     1.16200
O843        O  0.98572021  0.00588828  0.46183341    -0.76300
O844        O  0.98707902  0.00578446  0.64790265    -0.75900
Mn845      Mn  0.94811214  0.40160087  0.55565324     1.51100
O846        O  0.51281109  0.41059749  0.50467333    -0.88300
O847        O  0.98521692  0.03218619  0.59622432    -0.95800
O848        O  0.96372444  0.38528108  0.60564773    -0.90800
C849        C  0.98563268  0.02804808  0.63567013     1.14000
C850        C  0.49948046  0.07835126  0.73406419    -0.27500
C851        C  0.98514477  0.09386205  0.72008439     0.06100
C852        C  0.96946667  0.08600006  0.67989018     0.25800
C853        C  0.96919883  0.06397081  0.65349120    -0.12000
C854        C  0.98414723  0.04901391  0.66673840    -0.25900
C855        C  0.49888908  0.05592634  0.70769501     0.36600
C856        C  0.98765015  0.11908317  0.74621634     0.06100
F857        F  0.95450297  0.09972599  0.66598982    -0.19700
H858        H  0.95745315  0.05877886  0.62219221     0.16000
F859        F  0.51402374  0.04227240  0.72101372    -0.23400
H860        H  0.51195053  0.08430192  0.76473914     0.17800
C861        C  0.98108256  0.11610638  0.79156299     0.25800
C862        C  0.98282633  0.14002831  0.81527954    -0.11900
C863        C  0.99100594  0.16729935  0.79420821    -0.26000
C864        C  0.99814934  0.17032114  0.74884101     0.36700
C865        C  0.99652150  0.14646373  0.72535457    -0.27600
F866        F  0.47195118  0.08975724  0.81256866    -0.19700
H867        H  0.97706705  0.13690034  0.85002517     0.16000
F868        F  0.00680043  0.19626210  0.72690269    -0.23400
H869        H  0.00226609  0.14940694  0.69057803     0.17800
C870        C  0.51719877  0.35644475  0.70442652    -0.27500
C871        C  0.99059545  0.33107310  0.71736585     0.06100
C872        C  0.96332835  0.32687186  0.70151487     0.25800
C873        C  0.96291279  0.34698954  0.67121336    -0.12000
C874        C  0.98967729  0.37164853  0.65615781    -0.25900
C875        C  0.51687006  0.37669151  0.67430649     0.36600
C876        C  0.99154085  0.30800002  0.74474521     0.06100
F877        F  0.93721388  0.30240783  0.71334232    -0.19700
H878        H  0.94159217  0.34257741  0.65835756     0.16000
F879        F  0.54327627  0.40066629  0.66221673    -0.23400
H880        H  0.53837194  0.36020608  0.71696452     0.17800
C881        C  0.00743372  0.29433480  0.73011293     0.25800
C882        C  0.00709207  0.27142432  0.75477172    -0.11900
C883        C  0.99118570  0.26196792  0.79465128    -0.26000
C884        C  0.97557734  0.27592980  0.80957960     0.36700
C885        C  0.97566862  0.29867049  0.78459631    -0.27600
F886        F  0.52243620  0.30245787  0.69118333    -0.19700
H887        H  0.51925434  0.26100716  0.74258593     0.16000
F888        F  0.95929479  0.26684858  0.84732883    -0.23400
H889        H  0.96320784  0.30891338  0.79618086     0.17800
C890        C  0.50095402  0.07833945  0.37355928    -0.27500
C891        C  0.99065731  0.09721377  0.38812568     0.06100
C892        C  0.97750566  0.09247781  0.43008984     0.25800
C893        C  0.97526863  0.06968590  0.45718515    -0.12000
C894        C  0.98591281  0.05097633  0.44307166    -0.25900
C895        C  0.49878085  0.05544530  0.40087046     0.36600
C896        C  0.99354021  0.12189949  0.35992940     0.06100
F897        F  0.96652886  0.10975306  0.44474478    -0.19700
H898        H  0.96519253  0.06670141  0.48951113     0.16000
F899        F  0.51037929  0.03860905  0.38678139    -0.23400
H900        H  0.51131673  0.08180649  0.34138758     0.17800
C901        C  0.50793620  0.15127077  0.37603342     0.25800
C902        C  0.50797039  0.17401519  0.35130576    -0.11900
C903        C  0.99391392  0.16809366  0.30980476    -0.26000
C904        C  0.98052535  0.13885760  0.29286790     0.36700
C905        C  0.98040599  0.11600931  0.31783955    -0.27600
F906        F  0.52189859  0.15794514  0.41583759    -0.19700
H907        H  0.51891511  0.19634265  0.36488242     0.16000
F908        F  0.96635901  0.13198326  0.25324486    -0.23400
H909        H  0.96913763  0.09347991  0.30499833     0.17800
C910        C  0.99846062  0.31159751  0.32236816    -0.27500
C911        C  0.99366205  0.30731288  0.36804550     0.06100
C912        C  0.49023755  0.28122422  0.38744994     0.25800
C913        C  0.49081725  0.25938502  0.36142106    -0.12000
C914        C  0.99468410  0.26296397  0.31533920    -0.25900
C915        C  0.99889482  0.28961352  0.29606259     0.36600
C916        C  0.99152186  0.32958886  0.39567314     0.06100
F917        F  0.48647870  0.27694407  0.43177031    -0.19700
H918        H  0.48773044  0.23937707  0.37751523     0.16000
F919        F  0.00352081  0.29459165  0.25200260    -0.23400
H920        H  0.00135008  0.33175300  0.30702744     0.17800
C921        C  0.01643573  0.35795236  0.40268177     0.25800
C922        C  0.01486050  0.37758955  0.43266829    -0.11900
C923        C  0.98835155  0.36937967  0.45597807    -0.26000
C924        C  0.96298718  0.34131481  0.44719267     0.36700
C925        C  0.96475847  0.32164975  0.41756281    -0.27600
F926        F  0.54266111  0.36607234  0.38219158    -0.19700
H927        H  0.03467693  0.39902752  0.43833756     0.16000
F928        F  0.93677740  0.33220321  0.46844108    -0.23400
H929        H  0.94531733  0.29984059  0.41230870     0.17800
C930        C  0.99491231  0.19688413  0.00675317    -0.27500
C931        C  0.98148699  0.21097017  0.02861258     0.06100
C932        C  0.96949464  0.22518904  0.00320347     0.25800
C933        C  0.97132858  0.22553200  0.95708900    -0.12000
C934        C  0.98465767  0.21131738  0.93532732    -0.25900
C935        C  0.99622950  0.19672068  0.96068577     0.36600
C936        C  0.98099586  0.21136363  0.07773903     0.06100
F937        F  0.95552570  0.23830181  0.02279732    -0.19700
H938        H  0.96198441  0.23667872  0.93834129     0.16000
F939        F  0.50980609  0.18316239  0.94118199    -0.23400
H940        H  0.50501646  0.18643345  0.02542518     0.17800
C941        C  0.97352780  0.18548400  0.10232951     0.25800
C942        C  0.97554795  0.18662581  0.14838801    -0.11900
C943        C  0.98464696  0.21344426  0.17119416    -0.26000
C944        C  0.99107574  0.23913325  0.14661461     0.36700
C945        C  0.98946064  0.23805088  0.10044814    -0.27600
F946        F  0.96407028  0.15894867  0.08187824    -0.19700
H947        H  0.96995172  0.16635455  0.16619679     0.16000
F948        F  0.49996116  0.26563616  0.16679794    -0.23400
H949        H  0.99573441  0.25840046  0.08238779     0.17800
C950        C  0.83380378  0.44189959  0.69967753    -0.27500
C951        C  0.83661510  0.46849948  0.71555387     0.06100
C952        C  0.86110098  0.99592971  0.70261933     0.25800
C953        C  0.88195027  0.99667409  0.67279743    -0.12000
C954        C  0.87882361  0.47002441  0.65552120    -0.25900
C955        C  0.85483880  0.44248038  0.67033973     0.36600
C956        C  0.81292547  0.46789121  0.74297652     0.06100
F957        F  0.86400451  0.02194205  0.71734191    -0.19700
H958        H  0.90006368  0.01821255  0.66220745     0.16000
F959        F  0.85111469  0.41609941  0.65573144    -0.23400
H960        H  0.81492453  0.42059171  0.70954444     0.17800
C961        C  0.78562051  0.46110434  0.72384501     0.25800
C962        C  0.76388587  0.46245506  0.74915814    -0.11900
C963        C  0.76887676  0.47042747  0.79411801    -0.26000
C964        C  0.79626870  0.47681999  0.81325956     0.36700
C965        C  0.81808048  0.47566405  0.78769775    -0.27600
F966        F  0.78037059  0.45404728  0.68033366    -0.19700
H967        H  0.74310957  0.45732530  0.73331712     0.16000
F968        F  0.80244435  0.48498383  0.85623099    -0.23400
H969        H  0.83921482  0.48114267  0.80269306     0.17800
C970        C  0.64749362  0.46566722  0.72924749    -0.27500
C971        C  0.63001386  0.47581891  0.74956304     0.06100
C972        C  0.63499201  0.98412825  0.79428689     0.25800
C973        C  0.65772198  0.98299613  0.81771128    -0.12000
C974        C  0.67589333  0.47369346  0.79687662    -0.25900
C975        C  0.67023404  0.46472659  0.75230423     0.36600
C976        C  0.60742994  0.47830683  0.72285632     0.06100
F977        F  0.61864732  0.99430985  0.81483437    -0.19700
H978        H  0.66150456  0.99003081  0.85192205     0.16000
F979        F  0.68644802  0.45480047  0.73072741    -0.23400
H980        H  0.64359693  0.45854120  0.69505818     0.16700
C981        C  0.61545416  0.49275100  0.68163852     0.25800
C982        C  0.59383671  0.49230983  0.65392868    -0.11900
C983        C  0.56384426  0.47805917  0.66692671    -0.26000
C984        C  0.55581306  0.46459403  0.70888957     0.36700
C985        C  0.57753014  0.46465149  0.73658194    -0.27600
F986        F  0.64427915  0.50714919  0.66796096    -0.19700
H987        H  0.60060766  0.50312002  0.62196136     0.16000
F988        F  0.52690471  0.95004194  0.72206672    -0.23400
H989        H  0.57086164  0.95313200  0.76800642     0.17800
C990        C  0.85894401  0.49990574  0.41536582    -0.27500
C991        C  0.83557572  0.47312507  0.39855435     0.06100
C992        C  0.83435157  0.44617939  0.40952845     0.25800
C993        C  0.85545002  0.44608004  0.43845758    -0.12000
C994        C  0.87822751  0.47285570  0.45687584    -0.25900
C995        C  0.88005894  0.49993017  0.44403676     0.36600
C996        C  0.81201429  0.47366888  0.37132270     0.06100
F997        F  0.81195182  0.41983597  0.39399602    -0.19700
H998        H  0.85343383  0.42492469  0.44732637     0.16000
F999        F  0.90167645  0.02657624  0.46007520    -0.23400
H1000       H  0.86057216  0.02095534  0.40678098     0.17800
C1001       C  0.79657084  0.48748638  0.38740948     0.25800
C1002       C  0.77483674  0.48863872  0.36155705    -0.11900
C1003       C  0.76826403  0.47647570  0.31876590    -0.26000
C1004       C  0.78371683  0.46254584  0.30268484     0.36700
C1005       C  0.80521347  0.46102174  0.32892861    -0.27600
F1006       F  0.80229376  0.49963678  0.42845308    -0.19700
H1007       H  0.76343849  0.49952140  0.37492865     0.16000
F1008       F  0.77786921  0.45005013  0.26189679    -0.23400
H1009       H  0.81692394  0.45037360  0.31586900     0.17800
C1010       C  0.62981467  0.48063568  0.31314826    -0.27500
C1011       C  0.63463349  0.49130229  0.35662881     0.06100
C1012       C  0.66305829  0.50266241  0.37554739     0.25800
C1013       C  0.68566309  0.50147013  0.35241479    -0.12000
C1014       C  0.68050708  0.48928411  0.30975242    -0.25900
C1015       C  0.65252632  0.47962826  0.28974341     0.36600
C1016       C  0.60927916  0.48678192  0.38437472     0.06100
F1017       F  0.66865560  0.01413553  0.41704575    -0.19700
H1018       H  0.70711246  0.00965921  0.36825323     0.16000
F1019       F  0.64639284  0.46745554  0.24872669    -0.23400
H1020       H  0.60798099  0.47156273  0.29821511     0.17800
C1021       C  0.59064370  0.49810011  0.37256428     0.25800
C1022       C  0.56734589  0.49379140  0.40068719    -0.11900
C1023       C  0.56271951  0.47850300  0.44094539    -0.26000
C1024       C  0.58081182  0.46642344  0.45175454     0.36700
C1025       C  0.60366529  0.47041384  0.42360271    -0.27600
F1026       F  0.59576452  0.51434767  0.33504961    -0.19700
H1027       H  0.55380660  0.50349665  0.39198933     0.16000
F1028       F  0.57648515  0.45075280  0.48968555    -0.23400
H1029       H  0.61728192  0.46085799  0.43266276     0.17800
C1030       C  0.71449129  0.49245441  0.10163050    -0.27500
C1031       C  0.72555318  0.47615918  0.07993524     0.06100
C1032       C  0.73730044  0.46172597  0.10542436     0.25800
C1033       C  0.73759090  0.46341103  0.15162072    -0.12000
C1034       C  0.72593230  0.47922700  0.17326661    -0.25900
C1035       C  0.71451805  0.49392530  0.14767201     0.36600
C1036       C  0.72509987  0.47486967  0.03085452     0.06100
F1037       F  0.74776610  0.44533119  0.08580223    -0.19700
H1038       H  0.74639593  0.45181862  0.17049216     0.16000
F1039       F  0.70399890  0.01039859  0.16696231    -0.23400
H1040       H  0.70606162  0.00442653  0.08281679     0.17800
C1041       C  0.69937175  0.46888241  0.00702939     0.25800
C1042       C  0.69958374  0.46910640  0.96086783    -0.11900
C1043       C  0.72528972  0.47497619  0.93725176    -0.26000
C1044       C  0.75096573  0.48065633  0.96118949     0.36700
C1045       C  0.75079295  0.48068586  0.00741011    -0.27600
F1046       F  0.67376949  0.46225097  0.02833922    -0.19700
H1047       H  0.67936143  0.46431173  0.94363829     0.16000
F1048       F  0.77652206  0.48681323  0.94023425    -0.23400
H1049       H  0.77103517  0.48587276  0.02492490     0.17800
C1050       C  0.88602936  0.39091746  0.73831655    -0.27500
C1051       C  0.86765212  0.36097736  0.72617892     0.06100
C1052       C  0.87312358  0.35057854  0.68654714     0.25800
C1053       C  0.89539815  0.37025230  0.65812623    -0.12000
C1054       C  0.91289498  0.40049939  0.66903095    -0.25900
C1055       C  0.90872095  0.41065434  0.70999217     0.36600
C1056       C  0.84160786  0.34071701  0.75305038     0.06100
F1057       F  0.85653620  0.32139867  0.67505512    -0.19700
H1058       H  0.89869571  0.36189653  0.62713458     0.16000
F1059       F  0.92534726  0.43982868  0.72147695    -0.23400
H1060       H  0.88205106  0.39919824  0.76885814     0.17800
C1061       C  0.84470940  0.33456842  0.79723249     0.25800
C1062       C  0.82011870  0.31237396  0.82008981    -0.11900
C1063       C  0.79220956  0.29602782  0.79909688    -0.26000
C1064       C  0.78893447  0.30365731  0.75563227     0.36700
C1065       C  0.81345152  0.32581994  0.73301449    -0.27600
F1066       F  0.87175929  0.34875000  0.81734885    -0.19700
H1067       H  0.82327395  0.30714902  0.85361801     0.16000
F1068       F  0.76223536  0.28949276  0.73456371    -0.23400
H1069       H  0.81065296  0.33087056  0.69918438     0.17800
C1070       C  0.66633218  0.18429747  0.72626154    -0.27500
C1071       C  0.65349516  0.15440641  0.73973723     0.06100
C1072       C  0.66226297  0.14791689  0.78025051     0.25800
C1073       C  0.68390637  0.17088267  0.80625923    -0.12000
C1074       C  0.69749114  0.20069968  0.79213215    -0.25900
C1075       C  0.68819711  0.20727223  0.75204844     0.36600
C1076       C  0.63178854  0.13009610  0.71074996     0.06100
F1077       F  0.64981486  0.11933864  0.79472347    -0.19700
H1078       H  0.69060485  0.16522854  0.83700459     0.16000
F1079       F  0.70005143  0.23587167  0.73788868    -0.23400
H1080       H  0.65989798  0.18980344  0.69515243     0.17800
C1081       C  0.60661806  0.13033086  0.69430341     0.25800
C1082       C  0.58699619  0.10791986  0.66563619    -0.11900
C1083       C  0.59217636  0.08494501  0.65206080    -0.26000
C1084       C  0.61720333  0.08449883  0.66930173     0.36700
C1085       C  0.63667210  0.10683374  0.69838374    -0.27600
F1086       F  0.60092052  0.15220423  0.70602101    -0.19700
H1087       H  0.56796270  0.10900466  0.65337240     0.16000
F1088       F  0.62341865  0.06302857  0.65744285    -0.23400
H1089       H  0.65610134  0.10639570  0.71041981     0.17800
C1090       C  0.88250907  0.38496278  0.37539007    -0.27500
C1091       C  0.86594926  0.35499219  0.38888624     0.06100
C1092       C  0.87361990  0.34628693  0.42845512     0.25800
C1093       C  0.89614275  0.36751925  0.45524796    -0.12000
C1094       C  0.91197303  0.39769106  0.44268323    -0.25900
C1095       C  0.90550316  0.40620172  0.40194683     0.36600
C1096       C  0.84052884  0.33292792  0.36203464     0.06100
F1097       F  0.85937560  0.31722530  0.44117274    -0.19700
H1098       H  0.90106351  0.36037866  0.48620974     0.16000
F1099       F  0.92027518  0.43517749  0.38892239    -0.23400
H1100       H  0.87704300  0.39205699  0.34485530     0.17800
C1101       C  0.81253735  0.31442948  0.38153151     0.25800
C1102       C  0.78917506  0.29253335  0.35656786    -0.11900
C1103       C  0.79305173  0.28877117  0.31154132    -0.26000
C1104       C  0.82080113  0.30809460  0.29166111     0.36700
C1105       C  0.84425038  0.32993763  0.31680919    -0.27600
F1106       F  0.80766172  0.31768268  0.42467981    -0.19700
H1107       H  0.76799411  0.27843793  0.37269294     0.16000
F1108       F  0.82574367  0.30535126  0.24838729    -0.23400
H1109       H  0.86562146  0.34405182  0.30119326     0.17800
C1110       C  0.65684600  0.14290912  0.32057202    -0.27500
C1111       C  0.65349322  0.14827316  0.36498448     0.06100
C1112       C  0.67267566  0.17639078  0.38326461     0.25800
C1113       C  0.69490609  0.19880234  0.35754051    -0.12000
C1114       C  0.69848696  0.19376283  0.31293465    -0.25900
C1115       C  0.67899939  0.16552489  0.29446951     0.36600
C1116       C  0.63043214  0.12456960  0.39284336     0.06100
F1117       F  0.67035282  0.18196230  0.42643307    -0.19700
H1118       H  0.70938910  0.22020226  0.37280268     0.16000
F1119       F  0.68162052  0.15946700  0.25168078    -0.23400
H1120       H  0.64220690  0.12124279  0.30614294     0.17800
C1121       C  0.60870283  0.12885294  0.41343507     0.25800
C1122       C  0.58892441  0.10790139  0.44356981    -0.11900
C1123       C  0.59076466  0.08251488  0.45443446    -0.26000
C1124       C  0.61216202  0.07789071  0.43274396     0.36700
C1125       C  0.63157840  0.09867380  0.40186966    -0.27600
F1126       F  0.60705992  0.15369058  0.40507455    -0.19700
H1127       H  0.57278018  0.11215984  0.45949075     0.16000
F1128       F  0.61503460  0.05387839  0.44212648    -0.23400
H1129       H  0.64837457  0.09520156  0.38637153     0.17800
C1130       C  0.73139832  0.21339337  0.10065561    -0.27500
C1131       C  0.74789428  0.24027492  0.07742246     0.06100
C1132       C  0.76343629  0.26712340  0.10108017     0.25800
C1133       C  0.76284866  0.26686104  0.14720850    -0.12000
C1134       C  0.74639334  0.23993412  0.17059167    -0.25900
C1135       C  0.73053245  0.21312182  0.14674897     0.36600
C1136       C  0.74780251  0.24009649  0.02857843     0.06100
F1137       F  0.77835789  0.29368682  0.07963479    -0.19700
H1138       H  0.77488948  0.28787493  0.16462159     0.16000
F1139       F  0.71466470  0.18652615  0.16777273    -0.23400
H1140       H  0.71927671  0.19248466  0.08298390     0.17800
C1141       C  0.77453294  0.25458964  0.00439940     0.25800
C1142       C  0.77379373  0.25500661  0.95827641    -0.11900
C1143       C  0.74646158  0.24065820  0.93553182    -0.26000
C1144       C  0.71980417  0.22546962  0.95978876     0.36700
C1145       C  0.72056073  0.22528451  0.00585121    -0.27600
F1146       F  0.80132252  0.26796583  0.02530703    -0.19700
H1147       H  0.79464240  0.26654761  0.94031361     0.16000
F1148       F  0.69291993  0.21190439  0.93919530    -0.23400
H1149       H  0.69973269  0.21409358  0.02390951     0.17800
C1150       C  0.72304069  0.71801764  0.28722822     0.81000
N1151       N  0.74556986  0.74135579  0.30892225    -0.77400
C1152       C  0.76837211  0.76405645  0.28667200     0.83400
N1153       N  0.76842249  0.76338145  0.24186619    -0.77300
C1154       C  0.74605367  0.74019748  0.21947869     0.83500
N1155       N  0.72343342  0.71751727  0.24238510    -0.79000
C1156       C  0.72193914  0.72445427  0.81850323     0.81000
N1157       N  0.72298087  0.72155712  0.86297695    -0.77400
C1158       C  0.74595512  0.74291178  0.88698144     0.83400
N1159       N  0.76817166  0.76702495  0.86610812    -0.77300
C1160       C  0.76736565  0.77024525  0.82175105     0.83500
N1161       N  0.74418219  0.74885977  0.79818180    -0.79000
C1162       C  0.74553418  0.97875145  0.29165755     0.81000
N1163       N  0.72462926  0.98316720  0.31167857    -0.77400
C1164       C  0.70388982  0.98564721  0.28750247     0.83400
N1165       N  0.70450873  0.98418183  0.24284965    -0.77300
C1166       C  0.72539527  0.98015276  0.22217889     0.83500
N1167       N  0.74571345  0.97716379  0.24677908    -0.79000
C1168       C  0.74556734  0.97230677  0.81992192     0.81000
N1169       N  0.72267286  0.97248337  0.79856543    -0.77400
C1170       C  0.70079816  0.97375320  0.82114542     0.83400
N1171       N  0.70199502  0.97489656  0.86598515    -0.77300
C1172       C  0.72474099  0.97468769  0.88811570     0.83500
N1173       N  0.74643359  0.97340150  0.86477354    -0.79000
C1174       C  0.99359610  0.73845416  0.28853810     0.81000
N1175       N  0.99025942  0.73758478  0.24390623    -0.77400
C1176       C  0.98800176  0.71431074  0.22007006     0.83400
N1177       N  0.98902799  0.69172263  0.24145943    -0.77300
C1178       C  0.99257598  0.69242274  0.28598739     0.83500
N1179       N  0.99480299  0.71581898  0.30908713    -0.79000
C1180       C  0.99032074  0.73699492  0.81935184     0.81000
N1181       N  0.98764771  0.73543833  0.86399999    -0.77400
C1182       C  0.98695880  0.71243502  0.88654682     0.83400
N1183       N  0.98845722  0.69063109  0.86390002    -0.77300
C1184       C  0.99091150  0.69182897  0.81914202     0.83500
N1185       N  0.99199638  0.71519498  0.79725752    -0.79000
O1186       O  0.91835203  0.49715626  0.50740293    -0.87400
C1187       C  0.57244079  0.56328739  0.61793755     1.12600
O1188       O  0.95512465  0.97402964  0.55496899    -1.35300
O1189       O  0.55070691  0.56604346  0.50483631    -0.88900
O1190       O  0.89487097  0.94744797  0.50466502    -0.89600
O1191       O  0.95553554  0.94384495  0.46199072    -0.78400
O1192       O  0.98460951  0.53243887  0.51375521    -1.00500
C1193       C  0.54078701  0.97696347  0.47321285     1.22600
O1194       O  0.98727123  0.94441992  0.55455579    -1.35400
Mn1195     Mn  0.98701507  0.97517568  0.60236631     1.82100
O1196       O  0.51743759  0.97650759  0.46153047    -0.77500
O1197       O  0.57699908  0.54272856  0.50503052    -0.86900
C1198       C  0.54155164  0.97657738  0.63520475     1.13700
C1199       C  0.57150429  0.56231905  0.48994805     1.08400
O1200       O  0.95690042  0.94466067  0.64742597    -0.78400
O1201       O  0.51738210  0.50653522  0.55442446    -1.32100
O1202       O  0.92895773  0.91581729  0.59683988    -0.97600
C1203       C  0.98799965  0.88924183  0.49104104     1.07200
Mn1204     Mn  0.56005724  0.51022323  0.55438534     1.48600
O1205       O  0.96310685  0.88376418  0.50696293    -0.86800
Mn1206     Mn  0.91342487  0.93340424  0.55459303     1.49600
O1207       O  0.91932608  0.49677817  0.60604385    -0.90700
C1208       C  0.98500381  0.52852571  0.47420643     1.20400
C1209       C  0.89911732  0.97142811  0.61989145     1.12400
Mn1210     Mn  0.98634167  0.97516399  0.50684932     1.81000
O1211       O  0.54607460  0.97675743  0.59569688    -0.95900
Mn1212     Mn  0.95145779  0.51279006  0.55575473     1.49300
C1213       C  0.89856303  0.97241328  0.49136737     1.08900
Mn1214     Mn  0.52752410  0.94321445  0.55411083     1.49900
C1215       C  0.98893778  0.89057914  0.61994321     1.11800
O1216       O  0.92886751  0.91528640  0.51365050    -1.01700
O1217       O  0.57775700  0.54330787  0.60383234    -0.91300
C1218       C  0.93325088  0.91988859  0.47416836     1.23100
O1219       O  0.54555346  0.97680475  0.51265256    -1.02100
O1220       O  0.55129298  0.56640652  0.60298574    -0.89500
O1221       O  0.51346085  0.91077298  0.60367606    -0.89100
O1222       O  0.89483702  0.94709338  0.60353020    -0.89100
Mn1223     Mn  0.51845521  0.54786631  0.55448290     1.47900
O1224       O  0.51801631  0.97550924  0.64727186    -0.77600
C1225       C  0.93393977  0.92119648  0.63618067     1.16200
O1226       O  0.98570960  0.50588317  0.46182841    -0.76300
O1227       O  0.98706164  0.50576568  0.64789940    -0.75900
Mn1228     Mn  0.94810121  0.90160839  0.55566727     1.51100
O1229       O  0.51281988  0.91060079  0.50465646    -0.88300
O1230       O  0.98519472  0.53216587  0.59622328    -0.95800
O1231       O  0.96371166  0.88527683  0.60564877    -0.90800
C1232       C  0.98561629  0.52803029  0.63566901     1.14000
C1233       C  0.49947166  0.57837238  0.73403100    -0.27500
C1234       C  0.98517191  0.59386567  0.72008772     0.06100
C1235       C  0.96951490  0.58603011  0.67987562     0.25800
C1236       C  0.96923094  0.56399315  0.65347618    -0.12000
C1237       C  0.98414278  0.54900270  0.66673883    -0.25900
C1238       C  0.49889703  0.55595645  0.70766063     0.36600
C1239       C  0.98769220  0.61909160  0.74622447     0.06100
F1240       F  0.95458628  0.59978851  0.66595901    -0.19700
H1241       H  0.95750030  0.55882042  0.62216535     0.16000
F1242       F  0.51406480  0.54233321  0.72096266    -0.23400
H1243       H  0.51195704  0.58434180  0.76469262     0.17800
C1244       C  0.98109439  0.61610544  0.79156138     0.25800
C1245       C  0.98283931  0.64002824  0.81527685    -0.11900
C1246       C  0.99105028  0.66730939  0.79421410    -0.26000
C1247       C  0.99823162  0.67034320  0.74886122     0.36700
C1248       C  0.99660178  0.64648448  0.72537511    -0.27600
F1249       F  0.47196875  0.58976854  0.81257318    -0.19700
H1250       H  0.97705222  0.63689227  0.85001255     0.16000
F1251       F  0.00692187  0.69629752  0.72693856    -0.23400
H1252       H  0.00237206  0.64943523  0.69060770     0.17800
C1253       C  0.51720865  0.85646015  0.70442935    -0.27500
C1254       C  0.99056717  0.83106046  0.71737715     0.06100
C1255       C  0.96330211  0.82685659  0.70151165     0.25800
C1256       C  0.96289012  0.84697683  0.67121072    -0.12000
C1257       C  0.98965626  0.87164096  0.65617017    -0.25900
C1258       C  0.51687676  0.87670370  0.67430637     0.36600
C1259       C  0.99151202  0.80798257  0.74474643     0.06100
F1260       F  0.93718710  0.80238730  0.71332237    -0.19700
H1261       H  0.94157171  0.84256223  0.65834226     0.16000
F1262       F  0.54328131  0.90067980  0.66221409    -0.23400
H1263       H  0.53838290  0.86022417  0.71696692     0.17800
C1264       C  0.00741479  0.79432814  0.73011186     0.25800
C1265       C  0.00707730  0.77141629  0.75476169    -0.11900
C1266       C  0.99116707  0.76194889  0.79463653    -0.26000
C1267       C  0.97554727  0.77589878  0.80956662     0.36700
C1268       C  0.97563279  0.79863961  0.78459053    -0.27600
F1269       F  0.52244825  0.80247275  0.69119339    -0.19700
H1270       H  0.51926196  0.76102023  0.74259720     0.16000
F1271       F  0.95926228  0.76680793  0.84731309    -0.23400
H1272       H  0.96316434  0.80887396  0.79617724     0.17800
C1273       C  0.50097107  0.57832673  0.37352065    -0.27500
C1274       C  0.99064788  0.59721597  0.38813563     0.06100
C1275       C  0.97750502  0.59248505  0.43010609     0.25800
C1276       C  0.97526108  0.56968752  0.45719597    -0.12000
C1277       C  0.98589033  0.55096732  0.44307249    -0.25900
C1278       C  0.49879143  0.55543163  0.40083709     0.36600
C1279       C  0.99353349  0.62190402  0.35993980     0.06100
F1280       F  0.96654208  0.60976977  0.44477231    -0.19700
H1281       H  0.96519161  0.56670743  0.48952644     0.16000
F1282       F  0.51037780  0.53858427  0.38674998    -0.23400
H1283       H  0.51132867  0.58178593  0.34134632     0.17800
C1284       C  0.50798521  0.65127084  0.37597715     0.25800
C1285       C  0.50800892  0.67401388  0.35125931    -0.11900
C1286       C  0.99391441  0.66810142  0.30981169    -0.26000
C1287       C  0.98052524  0.63886553  0.29287445     0.36700
C1288       C  0.98040182  0.61601573  0.31784786    -0.27600
F1289       F  0.52197121  0.65794854  0.41576291    -0.19700
H1290       H  0.51896607  0.69634423  0.36482696     0.16000
F1291       F  0.96636193  0.63199294  0.25324902    -0.23400
H1292       H  0.96913255  0.59348659  0.30500567     0.17800
C1293       C  0.99845107  0.81159976  0.32237306    -0.27500
C1294       C  0.99362173  0.80730185  0.36804377     0.06100
C1295       C  0.49025815  0.78122345  0.38745255     0.25800
C1296       C  0.49083707  0.75938387  0.36142298    -0.12000
C1297       C  0.99466003  0.76296001  0.31534027    -0.25900
C1298       C  0.99889281  0.78961911  0.29606865     0.36600
C1299       C  0.99148542  0.82958056  0.39567099     0.06100
F1300       F  0.48652210  0.77695362  0.43177698    -0.19700
H1301       H  0.48776847  0.73938376  0.37752024     0.16000
F1302       F  0.00355087  0.79461094  0.25201562    -0.23400
H1303       H  0.00136117  0.83176447  0.30703628     0.17800
C1304       C  0.01640721  0.85793551  0.40270058     0.25800
C1305       C  0.01483540  0.87757358  0.43268880    -0.11900
C1306       C  0.98832229  0.86937362  0.45598049    -0.26000
C1307       C  0.96295069  0.84131827  0.44717402     0.36700
C1308       C  0.96471821  0.82165178  0.41754195    -0.27600
F1309       F  0.54264821  0.86607455  0.38213989    -0.19700
H1310       H  0.03465772  0.89900396  0.43837413     0.16000
F1311       F  0.93673659  0.83221686  0.46840362    -0.23400
H1312       H  0.94527105  0.79984948  0.41227192     0.17800
C1313       C  0.99497550  0.69691985  0.00674647    -0.27500
C1314       C  0.98154421  0.71099922  0.02860793     0.06100
C1315       C  0.96953792  0.72520564  0.00320105     0.25800
C1316       C  0.97136214  0.72554150  0.95708595    -0.12000
C1317       C  0.98469559  0.71133204  0.93532174    -0.25900
C1318       C  0.99628303  0.69674899  0.96067859     0.36600
C1319       C  0.98105341  0.71139203  0.07773407     0.06100
F1320       F  0.95556289  0.73831114  0.02279802    -0.19700
H1321       H  0.96200630  0.73667787  0.93833996     0.16000
F1322       F  0.50981647  0.68317969  0.94117527    -0.23400
H1323       H  0.50501915  0.68644155  0.02542124     0.17800
C1324       C  0.97358739  0.68551223  0.10232226     0.25800
C1325       C  0.97559664  0.68665026  0.14838154    -0.11900
C1326       C  0.98468364  0.71346519  0.17119086    -0.26000
C1327       C  0.99111417  0.73915530  0.14661266     0.36700
C1328       C  0.98950909  0.73807655  0.10044521    -0.27600
F1329       F  0.96414004  0.65897973  0.08186793    -0.19700
H1330       H  0.97000014  0.66637829  0.16618866     0.16000
F1331       F  0.49992945  0.76562026  0.16679843    -0.23400
H1332       H  0.99578095  0.75842617  0.08238593     0.17800
C1333       C  0.83408434  0.94196722  0.70017468    -0.27500
C1334       C  0.83666457  0.96856585  0.71558494     0.06100
C1335       C  0.86128352  0.49583694  0.70305059     0.25800
C1336       C  0.88211825  0.49657095  0.67320499    -0.12000
C1337       C  0.87888085  0.97011141  0.65556353    -0.25900
C1338       C  0.85512410  0.94256437  0.67082481     0.36600
C1339       C  0.81294818  0.96791405  0.74296706     0.06100
F1340       F  0.86442449  0.52185623  0.71820927    -0.19700
H1341       H  0.90041433  0.51810203  0.66296869     0.16000
F1342       F  0.85163147  0.91618758  0.65665164    -0.23400
H1343       H  0.81537369  0.92064569  0.71039130     0.17800
C1344       C  0.78585998  0.96164634  0.72363018     0.25800
C1345       C  0.76411539  0.96297927  0.74894041    -0.11900
C1346       C  0.76889082  0.97044226  0.79409567    -0.26000
C1347       C  0.79607871  0.97632918  0.81342205     0.36700
C1348       C  0.81789332  0.97516918  0.78786962    -0.27600
F1349       F  0.78083089  0.95508522  0.67995100    -0.19700
H1350       H  0.74350896  0.95824846  0.73293446     0.16000
F1351       F  0.80205619  0.98398023  0.85659176    -0.23400
H1352       H  0.83887256  0.98025678  0.80301413     0.17800
C1353       C  0.64750663  0.96569015  0.72922746    -0.27500
C1354       C  0.63003310  0.97584985  0.74954163     0.06100
C1355       C  0.63496729  0.48409028  0.79431179     0.25800
C1356       C  0.65770125  0.48296389  0.81773475    -0.12000
C1357       C  0.67590542  0.97371381  0.79685739    -0.25900
C1358       C  0.67024323  0.96474304  0.75228653     0.36600
C1359       C  0.60744499  0.97833331  0.72284074     0.06100
F1360       F  0.61861420  0.49426035  0.81486404    -0.19700
H1361       H  0.66148027  0.48999436  0.85194774     0.16000
F1362       F  0.68644821  0.95480371  0.73071607    -0.23400
H1363       H  0.64360611  0.95856047  0.69504007     0.16700
C1364       C  0.61546342  0.99277841  0.68162386     0.25800
C1365       C  0.59384033  0.99232993  0.65391847    -0.11900
C1366       C  0.56384774  0.97806842  0.66691980    -0.26000
C1367       C  0.55582322  0.96460557  0.70888445     0.36700
C1368       C  0.57754611  0.96467138  0.73657230    -0.27600
F1369       F  0.64428759  0.00718268  0.66794237    -0.19700
H1370       H  0.60060637  0.00313993  0.62195054     0.16000
F1371       F  0.52689329  0.45003635  0.72206581    -0.23400
H1372       H  0.57084030  0.45311142  0.76801490     0.17800
C1373       C  0.85894912  0.99992647  0.41538279    -0.27500
C1374       C  0.83557915  0.97314559  0.39857393     0.06100
C1375       C  0.83435129  0.94619951  0.40955953     0.25800
C1376       C  0.85544831  0.94610071  0.43849411    -0.12000
C1377       C  0.87822907  0.97287730  0.45690602    -0.25900
C1378       C  0.88006229  0.99995138  0.44405900     0.36600
C1379       C  0.81201938  0.97369022  0.37133530     0.06100
F1380       F  0.81194992  0.91985548  0.39403165    -0.19700
H1381       H  0.85343009  0.92494533  0.44736925     0.16000
F1382       F  0.90167351  0.52655444  0.46005425    -0.23400
H1383       H  0.86056404  0.52093418  0.40677044     0.17800
C1384       C  0.79658337  0.98751874  0.38740986     0.25800
C1385       C  0.77485106  0.98867158  0.36155290    -0.11900
C1386       C  0.76827196  0.97649809  0.31876809    -0.26000
C1387       C  0.78371675  0.96255714  0.30269864     0.36700
C1388       C  0.80521207  0.96103274  0.32894722    -0.27600
F1389       F  0.80231115  0.99967913  0.42844694    -0.19700
H1390       H  0.76345878  0.99956247  0.37491632     0.16000
F1391       F  0.77786120  0.95004971  0.26191845    -0.23400
H1392       H  0.81691608  0.95037568  0.31589599     0.17800
C1393       C  0.62981839  0.98064196  0.31316334    -0.27500
C1394       C  0.63464460  0.99132599  0.35663397     0.06100
C1395       C  0.66307406  0.00270082  0.37554222     0.25800
C1396       C  0.68567816  0.00150776  0.35240852    -0.12000
C1397       C  0.68051534  0.98930545  0.30975643    -0.25900
C1398       C  0.65252852  0.97963295  0.28975805     0.36600
C1399       C  0.60929278  0.98680612  0.38438298     0.06100
F1400       F  0.66863475  0.51408238  0.41705985    -0.19700
H1401       H  0.70709272  0.50960967  0.36826857     0.16000
F1402       F  0.64638811  0.96744169  0.24875349    -0.23400
H1403       H  0.60798042  0.97155656  0.29824002     0.17800
C1404       C  0.59065298  0.99811816  0.37256890     0.25800
C1405       C  0.56735194  0.99380381  0.40068796    -0.11900
C1406       C  0.56272680  0.97851583  0.44094587    -0.26000
C1407       C  0.58082484  0.96644342  0.45176003     0.36700
C1408       C  0.60368240  0.97044032  0.42361222    -0.27600
F1409       F  0.59577227  0.01436473  0.33505360    -0.19700
H1410       H  0.55380876  0.00350422  0.39198713     0.16000
F1411       F  0.57649977  0.95077361  0.48969160    -0.23400
H1412       H  0.61730365  0.96089009  0.43267474     0.17800
C1413       C  0.71446425  0.99244817  0.10162860    -0.27500
C1414       C  0.72553505  0.97616126  0.07993130     0.06100
C1415       C  0.73729562  0.96174022  0.10542078     0.25800
C1416       C  0.73759329  0.96343106  0.15161708    -0.12000
C1417       C  0.72592769  0.97923966  0.17326530    -0.25900
C1418       C  0.71449717  0.99392379  0.14767093     0.36600
C1419       C  0.72508125  0.97486953  0.03084864     0.06100
F1420       F  0.74776824  0.94535137  0.08579920    -0.19700
H1421       H  0.74640959  0.95184837  0.17048689     0.16000
F1422       F  0.70403046  0.51040936  0.16696306    -0.23400
H1423       H  0.70609933  0.50444182  0.08281718     0.17800
C1424       C  0.69935338  0.96887892  0.00701859     0.25800
C1425       C  0.69956520  0.96909265  0.96085584    -0.11900
C1426       C  0.72527128  0.97495778  0.93724311    -0.26000
C1427       C  0.75094766  0.98064590  0.96118593     0.36700
C1428       C  0.75077466  0.98068371  0.00740645    -0.27600
F1429       F  0.67375151  0.96225399  0.02832391    -0.19700
H1430       H  0.67934338  0.96429553  0.94362280     0.16000
F1431       F  0.77650650  0.98680719  0.94023580    -0.23400
H1432       H  0.77101791  0.98587644  0.02492269     0.17800
C1433       C  0.88611361  0.89087545  0.73839496    -0.27500
C1434       C  0.86771565  0.86094621  0.72621681     0.06100
C1435       C  0.87316838  0.85056769  0.68654956     0.25800
C1436       C  0.89543152  0.87025505  0.65812723    -0.12000
C1437       C  0.91293902  0.90049505  0.66906602    -0.25900
C1438       C  0.90879767  0.91062468  0.71007119     0.36600
C1439       C  0.84166359  0.84068285  0.75307567     0.06100
F1440       F  0.85656948  0.82139607  0.67501919    -0.19700
H1441       H  0.89870846  0.86191586  0.62710508     0.16000
F1442       F  0.92544323  0.93978894  0.72159931    -0.23400
H1443       H  0.88215337  0.89914172  0.76896491     0.17800
C1444       C  0.84474782  0.83454882  0.79727273     0.25800
C1445       C  0.82014779  0.81236360  0.82012476    -0.11900
C1446       C  0.79224605  0.79601097  0.79911291    -0.26000
C1447       C  0.78898771  0.80362510  0.75563107     0.36700
C1448       C  0.81351315  0.82578073  0.73302025    -0.27600
F1449       F  0.87178909  0.84873649  0.81741360    -0.19700
H1450       H  0.82329057  0.80715145  0.85366684     0.16000
F1451       F  0.76229750  0.78945187  0.73453842    -0.23400
H1452       H  0.81072473  0.83082316  0.69918072     0.17800
C1453       C  0.66628304  0.68434269  0.72635653    -0.27500
C1454       C  0.65352354  0.65443382  0.73971646     0.06100
C1455       C  0.66236927  0.64792131  0.78014908     0.25800
C1456       C  0.68400957  0.67087655  0.80617460    -0.12000
C1457       C  0.69750890  0.70070838  0.79215604    -0.25900
C1458       C  0.68813591  0.70730756  0.75217164     0.36600
C1459       C  0.63181608  0.63013379  0.71069876     0.06100
F1460       F  0.65000056  0.61933090  0.79453432    -0.19700
H1461       H  0.69077305  0.66520587  0.83684647     0.16000
F1462       F  0.69990139  0.73592462  0.73814233    -0.23400
H1463       H  0.65980081  0.68987591  0.69531251     0.17800
C1464       C  0.60669459  0.63042090  0.69413934     0.25800
C1465       C  0.58707054  0.60800992  0.66547351    -0.11900
C1466       C  0.59218908  0.58497281  0.65202153    -0.26000
C1467       C  0.61716135  0.58447226  0.66937064     0.36700
C1468       C  0.63664167  0.60681573  0.69843126    -0.27600
F1469       F  0.60103844  0.65233934  0.70575144    -0.19700
H1470       H  0.56808078  0.60914005  0.65312014     0.16000
F1471       F  0.62330675  0.56293083  0.65765267    -0.23400
H1472       H  0.65603309  0.60633250  0.71053500     0.17800
C1473       C  0.88247861  0.88496282  0.37542691    -0.27500
C1474       C  0.86591574  0.85499378  0.38893067     0.06100
C1475       C  0.87358190  0.84629377  0.42850879     0.25800
C1476       C  0.89610483  0.86752907  0.45529895    -0.12000
C1477       C  0.91194113  0.89769876  0.44272264    -0.25900
C1478       C  0.90547322  0.90620436  0.40198065     0.36600
C1479       C  0.84050143  0.83292505  0.36207180     0.06100
F1480       F  0.85933655  0.81723382  0.44123531    -0.19700
H1481       H  0.90102367  0.86039171  0.48626525     0.16000
F1482       F  0.92024996  0.93517772  0.38894509    -0.23400
H1483       H  0.87701634  0.89205382  0.34488562     0.17800
C1484       C  0.81250922  0.81441544  0.38156012     0.25800
C1485       C  0.78915505  0.79251540  0.35658898    -0.11900
C1486       C  0.79303992  0.78876104  0.31156259    -0.26000
C1487       C  0.82078847  0.80809655  0.29169004     0.36700
C1488       C  0.84423009  0.82994220  0.31684602    -0.27600
F1489       F  0.80762425  0.81766159  0.42470695    -0.19700
H1490       H  0.76797404  0.77841112  0.37270802     0.16000
F1491       F  0.82573784  0.80536345  0.24841544    -0.23400
H1492       H  0.86560106  0.84406473  0.30123537     0.17800
C1493       C  0.65683668  0.64288474  0.32052896    -0.27500
C1494       C  0.65349719  0.64823386  0.36495298     0.06100
C1495       C  0.67269460  0.67633857  0.38325644     0.25800
C1496       C  0.69492726  0.69875463  0.35754263    -0.12000
C1497       C  0.69849518  0.69373214  0.31292359    -0.25900
C1498       C  0.67899266  0.66550543  0.29443619     0.36600
C1499       C  0.63043027  0.62453080  0.39280058     0.06100
F1500       F  0.67038082  0.68189318  0.42643598    -0.19700
H1501       H  0.70942100  0.72014476  0.37282340     0.16000
F1502       F  0.68159823  0.65946382  0.25163311    -0.23400
H1503       H  0.64218447  0.62122765  0.30608333     0.17800
C1504       C  0.60869934  0.62881779  0.41337721     0.25800
C1505       C  0.58892172  0.60787400  0.44351951    -0.11900
C1506       C  0.59076668  0.58249360  0.45440798    -0.26000
C1507       C  0.61216631  0.57786567  0.43273244     0.36700
C1508       C  0.63158094  0.59864028  0.40184866    -0.27600
F1509       F  0.60705841  0.65365478  0.40500076    -0.19700
H1510       H  0.57277615  0.61213517  0.45942967     0.16000
F1511       F  0.61504464  0.55385995  0.44214167    -0.23400
H1512       H  0.64838072  0.59516784  0.38636370     0.17800
C1513       C  0.73143634  0.71338085  0.10066105    -0.27500
C1514       C  0.74793167  0.74026405  0.07743240     0.06100
C1515       C  0.76347153  0.76711150  0.10109196     0.25800
C1516       C  0.76287785  0.76684733  0.14721974    -0.12000
C1517       C  0.74642057  0.73991899  0.17059908    -0.25900
C1518       C  0.73056641  0.71310700  0.14675367     0.36600
C1519       C  0.74783806  0.74008812  0.02859028     0.06100
F1520       F  0.77839597  0.79367544  0.07964850    -0.19700
H1521       H  0.77491494  0.78786054  0.16463486     0.16000
F1522       F  0.71470041  0.68650970  0.16777382    -0.23400
H1523       H  0.71931752  0.69247329  0.08298623     0.17800
C1524       C  0.77456791  0.75457097  0.00440947     0.25800
C1525       C  0.77382659  0.75498658  0.95828684    -0.11900
C1526       C  0.74649248  0.74064913  0.93554649    -0.26000
C1527       C  0.71983525  0.72547484  0.95980598     0.36700
C1528       C  0.72059423  0.72528902  0.00586747    -0.27600
F1529       F  0.80135810  0.76793875  0.02531528    -0.19700
H1530       H  0.79467473  0.76651855  0.94032103     0.16000
F1531       F  0.69294984  0.71192592  0.93921578    -0.23400
H1532       H  0.69976689  0.71410794  0.02392902     0.17800
loop_ 
_geom_bond_atom_site_label_1 
_geom_bond_atom_site_label_2 
_geom_bond_distance 
_geom_bond_site_symmetry_2 
_ccdc_geom_bond_type 
C1            N2   1.357       .  A
C1            N6   1.358       .  A
C1          C348   1.483       .  S
N2            C3   1.355       .  A
C3            N4   1.357       .  A
C3          C337   1.483       .  S
N4            C5   1.360       .  A
C5            N6   1.361       .  A
C5          C368   1.480       .  S
C7            N8   1.358       .  A
C7           N12   1.357       .  A
C7          C308   1.480       .  S
N8            C9   1.359       .  A
C9           N10   1.356       .  A
C9          C377   1.476       .  S
N10          C11   1.356       .  A
C11          N12   1.358       .  A
C11         C297   1.478       .  S
C13          N14   1.361       .  A
C13          N18   1.362       .  A
C13         C237   1.489       .  S
N14          C15   1.360       .  A
C15          N16   1.355       .  A
C15         C248   1.483       .  S
N16          C17   1.358       .  A
C17          N18   1.362       .  A
C17         C268   1.482       .  S
C19          N20   1.356       .  A
C19          N24   1.359       .  A
C19         C197   1.486       .  S
N20          C21   1.357       .  A
C21          N22   1.359       .  A
C21         C208   1.485       .  S
N22          C23   1.362       .  A
C23          N24   1.361       .  A
C23         C277   1.487       .  S
C25          N26   1.360       .  A
C25          N30   1.357       .  A
C25         C148   1.488       .  S
N26          C27   1.362       .  A
C27          N28   1.362       .  A
C27         C177   1.488       .  S
N28          C29   1.358       .  A
C29          N30   1.356       .  A
C29         C137   1.484       .  S
C31          N32   1.357       .  A
C31          N36   1.356       .  A
C31         C117   1.476       .  S
N32          C33   1.359       .  A
C33          N34   1.360       .  A
C33         C168   1.480       .  S
N34          C35   1.360       .  A
C35          N36   1.357       .  A
C35          C97   1.484       .  S
O37         Mn63   2.085   1_565  S
O37         C447   1.271       .  A
C38         C317   1.491       .  S
C38          O71   1.271       .  A
C38          O68   1.275       .  A
O39         Mn46   2.168       .  S
O39         Mn57   2.129       .  S
O39         Mn61   2.160       .  S
O39        Mn446   2.115       .  S
O40         Mn74   2.089       .  S
O40          C50   1.273       .  A
O41         Mn57   2.108       .  S
O41          C64   1.275       .  A
O42         Mn61   2.104       .  S
O42          C69   1.253       .  A
O43         Mn63   1.963       .  S
O43        Mn840   1.956       .  S
O43          C59   1.217       .  S
C44         C257   1.473       .  S
C44          O47   1.251       .  A
C44          O70   1.220       .  S
O45         Mn46   2.162       .  S
O45         Mn79   2.126       .  S
O45         Mn61   2.168       .  S
O45        Mn831   2.122       .  S
Mn46         O51   2.077       .  S
Mn46        O841   2.099       .  S
Mn46        O461   2.105       .  S
Mn46       O1201   2.157       .  S
O47        Mn827   2.095   1_455  S
O48         Mn55   2.086       .  S
O48          C50   1.270       .  A
C49         C217   1.475       .  S
C49          O75   1.250       .  A
C49          O62   1.218       .  S
C50         C357   1.482       .  S
O51          C76   1.248       .  A
O52         Mn55   2.126       .  S
O52         Mn74   2.118       .  S
O52       Mn1195   2.157   1_445  S
O52       Mn1210   2.164   1_445  S
O53         Mn57   1.963       .  S
O53         Mn79   1.958       .  S
O53          C76   1.221       .  S
C54         C157   1.488       .  S
C54          O56   1.271       .  A
C54         O846   1.272       .  A
Mn55         O68   2.110       .  S
Mn55        O453   1.965   1_545  S
Mn55        O445   1.957   1_545  S
O56         Mn79   2.092       .  S
Mn57         O73   2.082       .  S
Mn57         O67   1.958       .  S
O58         Mn63   2.097   1_565  S
O58         C443   1.273       .  A
C59         C128   1.479       .  S
C59          O77   1.253       .  A
C60         C188   1.485       .  S
C60          O73   1.269       .  A
C60         O441   1.273       .  A
Mn61        O813   2.095       .  S
Mn61        O460   2.108       .  S
Mn61       O1201   2.164       .  S
O62         Mn65   1.965       .  S
O62        Mn438   1.957       .  S
Mn63        O422   2.115   1_545  S
Mn63         O81   1.950       .  S
C64         C228   1.492       .  S
C64         O420   1.271       .  A
Mn65         O72   2.091       .  S
Mn65         O80   2.097       .  S
Mn65        O811   2.122   1_455  S
Mn65         O70   1.960       .  S
C66         C108   1.484       .  S
C66          O82   1.271       .  A
C66         O838   1.271       .  A
O67         Mn79   1.956       .  S
O67          C69   1.217       .  S
C69         C328   1.475       .  S
O70        Mn438   1.965       .  S
O71         Mn74   2.082       .  S
O72         C832   1.271   1_455  A
Mn74        O809   1.956   1_455  S
Mn74        O847   1.956   1_455  S
O75        Mn812   2.099   1_455  S
C76         C288   1.467       .  S
O77        Mn444   2.108   1_545  S
O78        Mn429   2.105   1_545  S
O78          C83   1.250       .  A
Mn79         O82   2.085       .  S
O80         C820   1.272   1_455  A
O81        Mn840   1.956       .  S
O81          C83   1.215       .  S
C83          C88   1.471       .  S
C84          C89   1.401       .  A
C84         C851   1.407       .  A
C84          H94   1.084   1_655  S
C85          C90   1.480       .  S
C85          C86   1.405       .  A
C85         C850   1.407       .  A
C86          C87   1.391       .  A
C86          F91   1.358       .  S
C87          C88   1.404       .  A
C87          H92   1.084       .  S
C88         C855   1.404       .  A
C89         C854   1.404       .  A
C89          F93   1.357   1_655  S
C90          C95   1.404       .  A
C90          C99   1.403       .  A
C95          C96   1.399       .  A
C95         F866   1.357       .  S
C96          C97   1.408       .  A
C96         H101   1.083       .  S
C97          C98   1.411       .  A
C98          C99   1.395       .  A
C98         F102   1.358       .  S
C99         H103   1.084       .  S
F100        C861   1.357       .  S
C104        C109   1.396       .  A
C104        C871   1.402   1_455  A
C104        H114   1.083       .  S
C105        C110   1.476       .  S
C105        C106   1.404       .  A
C105        C870   1.402       .  A
C106        C107   1.397       .  A
C106        F111   1.358       .  S
C107        C108   1.409       .  A
C107        H112   1.083       .  S
C108        C875   1.411       .  A
C109        C874   1.411   1_455  A
C109        F113   1.357       .  S
C110        C115   1.405       .  A
C110        C119   1.403       .  A
C115        C116   1.395       .  A
C115        F886   1.358       .  S
C116        C117   1.405       .  A
C116        H887   1.083       .  S
C117        C118   1.408       .  A
C118        C119   1.398       .  A
C118        F122   1.357       .  S
C119        H123   1.083       .  S
F120        C881   1.358       .  S
H121        C882   1.083       .  S
C124        C129   1.403   1_455  A
C124        C891   1.405   1_455  A
C124        H134   1.083       .  S
C125        C130   1.481       .  S
C125        C126   1.405       .  A
C125        C890   1.405       .  A
C126        C127   1.394       .  A
C126        F131   1.358       .  S
C127        C128   1.405       .  A
C127        H132   1.084       .  S
C128        C895   1.407       .  A
C129        C894   1.407       .  A
C129        F133   1.357   1_655  S
C130        C139   1.404       .  A
C130        C901   1.405       .  A
C135        C136   1.396       .  A
C135        C896   1.405   1_455  A
C135        F140   1.358       .  S
C136        C903   1.406   1_455  A
C136        H141   1.083       .  S
C137        C138   1.410       .  A
C137        C902   1.406       .  A
C138        C139   1.402       .  A
C138        F142   1.357       .  S
C139        H143   1.083       .  S
C144        C145   1.403       .  A
C144        C149   1.403       .  A
C144        H154   1.083       .  S
C145        C150   1.478       .  S
C145        C912   1.402       .  A
C146        C147   1.395       .  A
C146        C911   1.402       .  A
C146        F151   1.358       .  S
C147        C914   1.408       .  A
C147        H152   1.082       .  S
C148        C149   1.412       .  A
C148        C913   1.408       .  A
C149        F153   1.357       .  S
C150        C155   1.403       .  A
C150        C159   1.402       .  A
C155        C156   1.399       .  A
C155        F926   1.357       .  S
C156        C157   1.409       .  A
C156        H161   1.083       .  S
C157        C158   1.412       .  A
C158        C159   1.398       .  A
C158        F162   1.357       .  S
C159        H163   1.084       .  S
F160        C921   1.357       .  S
C164        C165   1.406       .  A
C164        C169   1.397   1_554  A
C164        H940   1.083       .  S
C165        C170   1.488       .  S
C165        C166   1.408       .  A
C166        C167   1.399   1_554  A
C166        F171   1.357       .  S
C167        C168   1.406       .  A
C167        H172   1.083       .  S
C168        C169   1.407       .  A
C169        F939   1.357       .  S
C170        C175   1.407       .  A
C170        C179   1.405       .  A
F173        C935   1.357   1_455  S
H174        C930   1.083   1_455  S
C175        C176   1.397       .  A
C175        F180   1.358       .  S
C176        C177   1.407       .  A
C176        H181   1.083       .  S
C177        C178   1.411       .  A
C178        C179   1.400       .  A
C178        F948   1.357       .  S
C179        H183   1.082       .  S
F182        C944   1.357       .  S
C184        C185   1.399       .  A
C184        C189   1.398       .  A
C184        H194   1.086       .  S
C185        C190   1.472       .  S
C185        C569   1.402       .  A
C186        C187   1.397       .  A
C186        C568   1.402       .  A
C186        F191   1.357   1_565  S
C187        C571   1.407       .  A
C187        H192   1.085   1_565  S
C188        C189   1.414       .  A
C188        C570   1.407       .  A
C189        F193   1.358       .  S
C190        C195   1.402       .  A
C190        C199   1.400       .  A
C195        C196   1.396       .  A
C195        F200   1.358       .  S
C196        C197   1.409       .  A
C196        H201   1.084       .  S
C197        C198   1.411       .  A
C198        C199   1.399       .  A
C198        F202   1.356       .  S
C199        H203   1.084       .  S
C204        C205   1.402       .  A
C204        C209   1.393       .  A
C204        H214   1.084       .  S
C205        C210   1.481       .  S
C205        C589   1.406       .  A
C206        C207   1.402       .  A
C206        C588   1.406       .  A
C206        F211   1.357       .  S
C207        C591   1.409       .  A
C207        H212   1.083       .  S
C208        C209   1.410       .  A
C208        C590   1.409       .  A
C209        F213   1.357       .  S
C210        C215   1.405       .  A
C210        C219   1.406       .  A
C215        C216   1.391       .  A
C215        F220   1.358       .  S
C216        C217   1.403       .  A
C216        H221   1.084       .  S
C217        C218   1.407       .  A
C218        C219   1.403       .  A
C218        F605   1.357       .  S
C219        H606   1.083       .  S
F222        C601   1.357       .  S
H223        C602   1.083       .  S
C224        C225   1.402       .  A
C224        C229   1.397       .  A
C224        H617   1.083       .  S
C225        C230   1.486       .  S
C225        C226   1.407       .  A
C226        C227   1.404       .  A
C226        F231   1.357       .  S
C227        C228   1.409       .  A
C227        H232   1.082       .  S
C228        C229   1.413       .  A
C229        F616   1.357       .  S
C230        C235   1.406       .  A
C230        C239   1.404       .  A
F233        C612   1.357   1_545  S
H234        C607   1.083   1_545  S
C235        C236   1.398       .  A
C235        F240   1.358       .  S
C236        C237   1.407       .  A
C236        H241   1.083       .  S
C237        C238   1.411       .  A
C238        C239   1.403       .  A
C238        F242   1.357       .  S
C239        H243   1.083       .  S
C244        C245   1.402       .  A
C244        C249   1.400       .  A
C244        H254   1.083       .  S
C245        C250   1.478       .  S
C245        C246   1.406       .  A
C246        C247   1.396       .  A
C246        F634   1.358       .  S
C247        C248   1.404       .  A
C247        H635   1.083       .  S
C248        C249   1.412       .  A
C249        F253   1.357       .  S
C250        C255   1.407       .  A
C250        C259   1.401       .  A
F251        C629   1.358       .  S
H252        C630   1.083       .  S
C255        C256   1.403       .  A
C255        F260   1.357       .  S
C256        C257   1.406       .  A
C256        H261   1.083       .  S
C257        C258   1.405       .  A
C258        C259   1.390       .  A
C258        F262   1.358       .  S
C259        H263   1.083       .  S
C264        C265   1.404       .  A
C264        C269   1.396       .  A
C264        H657   1.083       .  S
C265        C270   1.487       .  S
C265        C266   1.409       .  A
C266        C267   1.401       .  A
C266        F271   1.357       .  S
C267        C268   1.405       .  A
C267        H272   1.083       .  S
C268        C269   1.409       .  A
C269        F656   1.358       .  S
C270        C275   1.408       .  A
C270        C279   1.404       .  A
F273        C652   1.358   1_545  S
H274        C647   1.083   1_545  S
C275        C276   1.398   1_554  A
C275        F280   1.358       .  S
C276        C277   1.407       .  A
C276        H281   1.083       .  S
C277        C278   1.411       .  A
C278        C279   1.399   1_556  A
C278        F282   1.357       .  S
C279        H283   1.083       .  S
C284        C285   1.403       .  A
C284        C289   1.399       .  A
C284        H294   1.084       .  S
C285        C290   1.471       .  S
C285        C286   1.404       .  A
C286        C287   1.389       .  A
C286        F291   1.358       .  S
C287        C288   1.401       .  A
C287        H292   1.084       .  S
C288        C289   1.408       .  A
C289        F293   1.358       .  S
C290        C295   1.402       .  A
C290        C299   1.401       .  A
C295        C296   1.398       .  A
C295        F300   1.358       .  S
C296        C297   1.409       .  A
C296        H301   1.083       .  S
C297        C298   1.408       .  A
C298        C299   1.391       .  A
C298        F302   1.357       .  S
C299        H303   1.084       .  S
C304        C305   1.405       .  A
C304        C309   1.399       .  A
C304        H314   1.084       .  S
C305        C310   1.484       .  S
C305        C306   1.406       .  A
C306        C307   1.398       .  A
C306        F311   1.357       .  S
C307        C308   1.405       .  A
C307        H312   1.083       .  S
C308        C309   1.409       .  A
C309        F313   1.358       .  S
C310        C315   1.404       .  A
C310        C319   1.405       .  A
C315        C316   1.397       .  A
C315        F320   1.358       .  S
C316        C317   1.411       .  A
C316        H321   1.083       .  S
C317        C318   1.411       .  A
C318        C319   1.401       .  A
C318        F322   1.356       .  S
C319        H323   1.083       .  S
C324        C325   1.406       .  A
C324        C329   1.401       .  A
C324        H334   1.083       .  S
C325        C330   1.481       .  S
C325        C326   1.405       .  A
C326        C327   1.394       .  A
C326        F331   1.358       .  S
C327        C328   1.405       .  A
C327        H332   1.084       .  S
C328        C329   1.405       .  A
C329        F333   1.357       .  S
C330        C335   1.406       .  A
C330        C339   1.403       .  A
C335        C336   1.395       .  A
C335        F340   1.358       .  S
C336        C337   1.407       .  A
C336        H341   1.083       .  S
C337        C338   1.410       .  A
C338        C339   1.399       .  A
C338        F342   1.357       .  S
C339        H343   1.083       .  S
C344        C345   1.402       .  A
C344        C349   1.401       .  A
C344        H354   1.083       .  S
C345        C350   1.474       .  S
C345        C346   1.402       .  A
C346        C347   1.392       .  A
C346        F351   1.358       .  S
C347        C348   1.406       .  A
C347        H352   1.083       .  S
C348        C349   1.411       .  A
C349        F353   1.357       .  S
C350        C355   1.403       .  A
C350        C359   1.401       .  A
C355        C356   1.394       .  A
C355        F360   1.357       .  S
C356        C357   1.407       .  A
C356        H361   1.083       .  S
C357        C358   1.413       .  A
C358        C359   1.399       .  A
C358        F362   1.357       .  S
C359        H363   1.083       .  S
C364        C365   1.403       .  A
C364        C369   1.396       .  A
C364        H374   1.083       .  S
C365        C370   1.479       .  S
C365        C366   1.406       .  A
C366        C367   1.397       .  A
C366        F371   1.358       .  S
C367        C368   1.407       .  A
C367        H372   1.083       .  S
C368        C369   1.408       .  A
C369        F373   1.357       .  S
C370        C375   1.406       .  A
C370        C379   1.403       .  A
C375        C376   1.397   1_554  A
C375        F380   1.358       .  S
C376        C377   1.406       .  A
C376        H381   1.083       .  S
C377        C378   1.406       .  A
C378        C379   1.395   1_556  A
C378        F382   1.357       .  S
C379        H383   1.083       .  S
C384        N385   1.357       .  A
C384        N389   1.358       .  A
C384        C731   1.483       .  S
N385        C386   1.355       .  A
C386        N387   1.357       .  A
C386        C720   1.483       .  S
N387        C388   1.360       .  A
C388        N389   1.361       .  A
C388        C751   1.480       .  S
C390        N391   1.358       .  A
C390        N395   1.357       .  A
C390        C691   1.480       .  S
N391        C392   1.359       .  A
C392        N393   1.357       .  A
C392        C760   1.476       .  S
N393        C394   1.356       .  A
C394        N395   1.358       .  A
C394        C680   1.478       .  S
C396        N397   1.361       .  A
C396        N401   1.362       .  A
C396        C620   1.489       .  S
N397        C398   1.360       .  A
C398        N399   1.355       .  A
C398        C631   1.483       .  S
N399        C400   1.358       .  A
C400        N401   1.362       .  A
C400        C651   1.482       .  S
C402        N403   1.356       .  A
C402        N407   1.359       .  A
C402        C580   1.486       .  S
N403        C404   1.357       .  A
C404        N405   1.359       .  A
C404        C591   1.485       .  S
N405        C406   1.362       .  A
C406        N407   1.361       .  A
C406        C660   1.487       .  S
C408        N409   1.360       .  A
C408        N413   1.357       .  A
C408        C531   1.488       .  S
N409        C410   1.362       .  A
C410        N411   1.362       .  A
C410        C560   1.488       .  S
N411        C412   1.358       .  A
C412        N413   1.356       .  A
C412        C520   1.484       .  S
C414        N415   1.357       .  A
C414        N419   1.356       .  A
C414        C500   1.476       .  S
N415        C416   1.359       .  A
C416        N417   1.360       .  A
C416        C551   1.480       .  S
N417        C418   1.360       .  A
C418        N419   1.357       .  A
C418        C480   1.484       .  S
O420       Mn446   2.085       .  S
C421        C700   1.491       .  S
C421        O454   1.271       .  A
C421        O451   1.275       .  A
O422       Mn429   2.168       .  S
O422       Mn440   2.129       .  S
O422       Mn444   2.160       .  S
O423       Mn457   2.089       .  S
O423        C433   1.273       .  A
O424       Mn440   2.107       .  S
O424        C447   1.275       .  A
O425       Mn444   2.104       .  S
O425        C452   1.253       .  A
O426      Mn1223   1.956       .  S
O426       Mn446   1.963       .  S
O426        C442   1.217       .  S
C427        C640   1.473       .  S
C427        O430   1.251       .  A
C427        O453   1.220       .  S
O428      Mn1214   2.122       .  S
O428       Mn429   2.162       .  S
O428       Mn462   2.126       .  S
O428       Mn444   2.168       .  S
Mn429      O1224   2.099       .  S
Mn429       O434   2.077       .  S
Mn429       O818   2.157   1_565  S
O430      Mn1210   2.095   1_455  S
O431       Mn438   2.086       .  S
O431        C433   1.270       .  A
C432        C600   1.475       .  S
C432        O458   1.250       .  A
C432        O445   1.218       .  S
C433        C740   1.482       .  S
O434        C459   1.248       .  A
O435       Mn812   2.157   1_455  S
O435       Mn438   2.126       .  S
O435       Mn457   2.118       .  S
O435       Mn827   2.164   1_455  S
O436       Mn440   1.963       .  S
O436       Mn462   1.958       .  S
O436        C459   1.221       .  S
C437        C540   1.488       .  S
C437       O1229   1.272       .  A
C437        O439   1.271       .  A
Mn438       O451   2.110       .  S
O439       Mn462   2.092       .  S
Mn440       O456   2.081       .  S
Mn440       O450   1.958       .  S
O441       Mn446   2.097       .  S
C442        C511   1.479       .  S
C442        O460   1.252       .  A
C443        C571   1.485       .  S
C443        O456   1.269       .  A
Mn444      O1196   2.095       .  S
Mn444       O818   2.164   1_565  S
O445       Mn448   1.965       .  S
Mn446       O464   1.951       .  S
C447        C611   1.492       .  S
Mn448       O455   2.091       .  S
Mn448       O463   2.097       .  S
Mn448      O1194   2.122   1_455  S
Mn448       O453   1.960       .  S
C449        C491   1.484       .  S
C449       O1221   1.271       .  A
C449        O465   1.271       .  A
O450       Mn462   1.956       .  S
O450        C452   1.217       .  S
C452        C711   1.475       .  S
O454       Mn457   2.082       .  S
O455       C1215   1.271   1_455  A
Mn457      O1192   1.956   1_455  S
Mn457      O1230   1.956   1_455  S
O458      Mn1195   2.099   1_455  S
C459        C671   1.467       .  S
O461        C466   1.250       .  A
Mn462       O465   2.085       .  S
O463       C1203   1.272   1_455  A
O464      Mn1223   1.956       .  S
O464        C466   1.215       .  S
C466        C471   1.471       .  S
C467       C1234   1.407       .  A
C467        C472   1.401       .  A
C467        H477   1.084   1_655  S
C468        C473   1.480       .  S
C468       C1233   1.407       .  A
C468        C469   1.405       .  A
C469        C470   1.391       .  A
C469        F474   1.358       .  S
C470        C471   1.404       .  A
C470        H475   1.084       .  S
C471       C1238   1.404       .  A
C472       C1237   1.404       .  A
C472        F476   1.357   1_655  S
C473        C478   1.404       .  A
C473        C482   1.403       .  A
C478        C479   1.399       .  A
C478       F1249   1.357       .  S
C479        C480   1.408       .  A
C479        H484   1.083       .  S
C480        C481   1.411       .  A
C481        C482   1.395       .  A
C481        F485   1.358       .  S
C482        H486   1.084       .  S
F483       C1244   1.357       .  S
C487       C1254   1.402   1_455  A
C487        C492   1.396       .  A
C487        H497   1.083       .  S
C488        C493   1.476       .  S
C488       C1253   1.402       .  A
C488        C489   1.404       .  A
C489        C490   1.397       .  A
C489        F494   1.358       .  S
C490        C491   1.409       .  A
C490        H495   1.083       .  S
C491       C1258   1.411       .  A
C492       C1257   1.411   1_455  A
C492        F496   1.357       .  S
C493        C498   1.405       .  A
C493        C502   1.403       .  A
C498        C499   1.395       .  A
C498       F1269   1.358       .  S
C499        C500   1.405       .  A
C499       H1270   1.083       .  S
C500        C501   1.408       .  A
C501        C502   1.398       .  A
C501        F505   1.357       .  S
C502        H506   1.083       .  S
F503       C1264   1.358       .  S
H504       C1265   1.083       .  S
C507       C1274   1.405   1_455  A
C507        C512   1.403   1_455  A
C507        H517   1.083       .  S
C508        C513   1.481       .  S
C508       C1273   1.405       .  A
C508        C509   1.405       .  A
C509        C510   1.394       .  A
C509        F514   1.358       .  S
C510        C511   1.405       .  A
C510        H515   1.084       .  S
C511       C1278   1.407       .  A
C512       C1277   1.407       .  A
C512        F516   1.357   1_655  S
C513       C1284   1.405       .  A
C513        C522   1.404       .  A
C518       C1279   1.405   1_455  A
C518        C519   1.396       .  A
C518        F523   1.358       .  S
C519       C1286   1.406   1_455  A
C519        H524   1.083       .  S
C520       C1285   1.406       .  A
C520        C521   1.410       .  A
C521        C522   1.402       .  A
C521        F525   1.357       .  S
C522        H526   1.083       .  S
C527        C528   1.403       .  A
C527        C532   1.403       .  A
C527        H537   1.083       .  S
C528        C533   1.478       .  S
C528       C1295   1.402       .  A
C529       C1294   1.402       .  A
C529        C530   1.395       .  A
C529        F534   1.358       .  S
C530       C1297   1.408       .  A
C530        H535   1.082       .  S
C531       C1296   1.408       .  A
C531        C532   1.412       .  A
C532        F536   1.357       .  S
C533        C538   1.403       .  A
C533        C542   1.402       .  A
C538        C539   1.399       .  A
C538       F1309   1.357       .  S
C539        C540   1.409       .  A
C539        H544   1.083       .  S
C540        C541   1.412       .  A
C541        C542   1.398       .  A
C541        F545   1.357       .  S
C542        H546   1.084       .  S
F543       C1304   1.357       .  S
C547        C548   1.406       .  A
C547        C552   1.397   1_554  A
C547       H1323   1.083       .  S
C548        C553   1.488       .  S
C548        C549   1.408       .  A
C549        C550   1.399   1_554  A
C549        F554   1.357       .  S
C550        C551   1.406       .  A
C550        H555   1.083       .  S
C551        C552   1.407       .  A
C552       F1322   1.357       .  S
C553        C558   1.407       .  A
C553        C562   1.405       .  A
F556       C1318   1.357   1_455  S
H557       C1313   1.083   1_455  S
C558        C559   1.397       .  A
C558        F563   1.358       .  S
C559        C560   1.407       .  A
C559        H564   1.083       .  S
C560        C561   1.411       .  A
C561        C562   1.400       .  A
C561       F1331   1.357       .  S
C562        H566   1.082       .  S
F565       C1327   1.357       .  S
C567        C568   1.400       .  A
C567        C572   1.397       .  A
C567        H577   1.086       .  S
C568        C573   1.473       .  S
C569        C570   1.396       .  A
C569        F574   1.357       .  S
C570        H575   1.085       .  S
C571        C572   1.414       .  A
C572        F576   1.358       .  S
C573        C578   1.402       .  A
C573        C582   1.400       .  A
C578        C579   1.396       .  A
C578        F583   1.358       .  S
C579        C580   1.409       .  A
C579        H584   1.084       .  S
C580        C581   1.411       .  A
C581        C582   1.399       .  A
C581        F585   1.356       .  S
C582        H586   1.084       .  S
C587        C588   1.402       .  A
C587        C592   1.393       .  A
C587        H597   1.084       .  S
C588        C593   1.481       .  S
C589        C590   1.402       .  A
C589        F594   1.357       .  S
C590        H595   1.083       .  S
C591        C592   1.410       .  A
C592        F596   1.357       .  S
C593        C598   1.405       .  A
C593        C602   1.406       .  A
C598        C599   1.391       .  A
C598        F603   1.358   1_565  S
C599        C600   1.403       .  A
C599        H604   1.084   1_565  S
C600        C601   1.407       .  A
C601        C602   1.403       .  A
C607        C608   1.402       .  A
C607        C612   1.397       .  A
C608        C613   1.486       .  S
C608        C609   1.407       .  A
C609        C610   1.404       .  A
C609        F614   1.357       .  S
C610        C611   1.409       .  A
C610        H615   1.082       .  S
C611        C612   1.413       .  A
C613        C618   1.406       .  A
C613        C622   1.404       .  A
C618        C619   1.398       .  A
C618        F623   1.358       .  S
C619        C620   1.407       .  A
C619        H624   1.083       .  S
C620        C621   1.411       .  A
C621        C622   1.403       .  A
C621        F625   1.357       .  S
C622        H626   1.083       .  S
C627        C628   1.402       .  A
C627        C632   1.400       .  A
C627        H637   1.083       .  S
C628        C633   1.478       .  S
C628        C629   1.406   1_565  A
C629        C630   1.396       .  A
C630        C631   1.404   1_545  A
C631        C632   1.412       .  A
C632        F636   1.357       .  S
C633        C638   1.407       .  A
C633        C642   1.401       .  A
C638        C639   1.403       .  A
C638        F643   1.357   1_565  S
C639        C640   1.406       .  A
C639        H644   1.083   1_565  S
C640        C641   1.405       .  A
C641        C642   1.390       .  A
C641        F645   1.358       .  S
C642        H646   1.083       .  S
C647        C648   1.404       .  A
C647        C652   1.396       .  A
C648        C653   1.487       .  S
C648        C649   1.409       .  A
C649        C650   1.401       .  A
C649        F654   1.357       .  S
C650        C651   1.405       .  A
C650        H655   1.083       .  S
C651        C652   1.409       .  A
C653        C658   1.408       .  A
C653        C662   1.404       .  A
C658        C659   1.397   1_554  A
C658        F663   1.358       .  S
C659        C660   1.407       .  A
C659        H664   1.083       .  S
C660        C661   1.411       .  A
C661        C662   1.399   1_556  A
C661        F665   1.357       .  S
C662        H666   1.083       .  S
C667        C668   1.403       .  A
C667        C672   1.398       .  A
C667        H677   1.084       .  S
C668        C673   1.471       .  S
C668        C669   1.404       .  A
C669        C670   1.389       .  A
C669        F674   1.358       .  S
C670        C671   1.401       .  A
C670        H675   1.084       .  S
C671        C672   1.408       .  A
C672        F676   1.358       .  S
C673        C678   1.402       .  A
C673        C682   1.401       .  A
C678        C679   1.398       .  A
C678        F683   1.358       .  S
C679        C680   1.409       .  A
C679        H684   1.083       .  S
C680        C681   1.408       .  A
C681        C682   1.391       .  A
C681        F685   1.357       .  S
C682        H686   1.084       .  S
C687        C688   1.405       .  A
C687        C692   1.399       .  A
C687        H697   1.084       .  S
C688        C693   1.484       .  S
C688        C689   1.406       .  A
C689        C690   1.398       .  A
C689        F694   1.357       .  S
C690        C691   1.405       .  A
C690        H695   1.083       .  S
C691        C692   1.408       .  A
C692        F696   1.358       .  S
C693        C698   1.404       .  A
C693        C702   1.405       .  A
C698        C699   1.397       .  A
C698        F703   1.358       .  S
C699        C700   1.410       .  A
C699        H704   1.083       .  S
C700        C701   1.411       .  A
C701        C702   1.401       .  A
C701        F705   1.356       .  S
C702        H706   1.083       .  S
C707        C708   1.406       .  A
C707        C712   1.401       .  A
C707        H717   1.083       .  S
C708        C713   1.481       .  S
C708        C709   1.405       .  A
C709        C710   1.394       .  A
C709        F714   1.358       .  S
C710        C711   1.405       .  A
C710        H715   1.084       .  S
C711        C712   1.405       .  A
C712        F716   1.357       .  S
C713        C718   1.406       .  A
C713        C722   1.403       .  A
C718        C719   1.395       .  A
C718        F723   1.358       .  S
C719        C720   1.407       .  A
C719        H724   1.083       .  S
C720        C721   1.410       .  A
C721        C722   1.399       .  A
C721        F725   1.357       .  S
C722        H726   1.083       .  S
C727        C728   1.403       .  A
C727        C732   1.401       .  A
C727        H737   1.083       .  S
C728        C733   1.474       .  S
C728        C729   1.402       .  A
C729        C730   1.392       .  A
C729        F734   1.358       .  S
C730        C731   1.406       .  A
C730        H735   1.083       .  S
C731        C732   1.411       .  A
C732        F736   1.357       .  S
C733        C738   1.403       .  A
C733        C742   1.401       .  A
C738        C739   1.394       .  A
C738        F743   1.357       .  S
C739        C740   1.407       .  A
C739        H744   1.083       .  S
C740        C741   1.413       .  A
C741        C742   1.399       .  A
C741        F745   1.357       .  S
C742        H746   1.083       .  S
C747        C748   1.403       .  A
C747        C752   1.396       .  A
C747        H757   1.083       .  S
C748        C753   1.479       .  S
C748        C749   1.406       .  A
C749        C750   1.397       .  A
C749        F754   1.358       .  S
C750        C751   1.407       .  A
C750        H755   1.083       .  S
C751        C752   1.408       .  A
C752        F756   1.357       .  S
C753        C758   1.406       .  A
C753        C762   1.403       .  A
C758        C759   1.397   1_554  A
C758        F763   1.358       .  S
C759        C760   1.406       .  A
C759        H764   1.083       .  S
C760        C761   1.406       .  A
C761        C762   1.395   1_556  A
C761        F765   1.357       .  S
C762        H766   1.083       .  S
C767        N768   1.357       .  A
C767        N772   1.358       .  A
C767       C1114   1.483       .  S
N768        C769   1.355       .  A
C769        N770   1.357       .  A
C769       C1103   1.483       .  S
N770        C771   1.360       .  A
C771        N772   1.361       .  A
C771       C1134   1.480       .  S
C773        N774   1.358       .  A
C773        N778   1.357       .  A
C773       C1074   1.480       .  S
N774        C775   1.359       .  A
C775        N776   1.357       .  A
C775       C1143   1.476       .  S
N776        C777   1.356       .  A
C777        N778   1.358       .  A
C777       C1063   1.478       .  S
C779        N780   1.361       .  A
C779        N784   1.362       .  A
C779       C1003   1.489       .  S
N780        C781   1.360       .  A
C781        N782   1.355       .  A
C781       C1014   1.483       .  S
N782        C783   1.358       .  A
C783        N784   1.362       .  A
C783       C1034   1.482       .  S
C785        N786   1.356       .  A
C785        N790   1.359       .  A
C785        C963   1.486       .  S
N786        C787   1.357       .  A
C787        N788   1.359       .  A
C787        C974   1.485       .  S
N788        C789   1.362       .  A
C789        N790   1.361       .  A
C789       C1043   1.487       .  S
C791        N792   1.360       .  A
C791        N796   1.357       .  A
C791        C914   1.488       .  S
N792        C793   1.362       .  A
C793        N794   1.362       .  A
C793        C943   1.488       .  S
N794        C795   1.358       .  A
C795        N796   1.356       .  A
C795        C903   1.484       .  S
C797        N798   1.357       .  A
C797        N802   1.356       .  A
C797        C883   1.476       .  S
N798        C799   1.359       .  A
C799        N800   1.360       .  A
C799        C934   1.480       .  S
N800        C801   1.360       .  A
C801        N802   1.357       .  A
C801        C863   1.484       .  S
O803       Mn829   2.085   1_565  S
O803       C1213   1.271       .  A
C804       C1083   1.491       .  S
C804        O837   1.271       .  A
C804        O834   1.275       .  A
O805       Mn812   2.168       .  S
O805       Mn823   2.129       .  S
O805       Mn827   2.160       .  S
O805      Mn1212   2.115       .  S
O806       Mn840   2.089       .  S
O806        C816   1.273       .  A
O807       Mn823   2.107       .  S
O807        C830   1.275       .  A
O808       Mn827   2.104       .  S
O808        C835   1.253       .  A
O809       Mn829   1.963       .  S
O809        C825   1.217       .  S
C810       C1023   1.473       .  S
C810        O813   1.251       .  A
C810        O836   1.220       .  S
O811       Mn812   2.162       .  S
O811       Mn845   2.126       .  S
O811       Mn827   2.168       .  S
Mn812       O817   2.077       .  S
Mn812      O1227   2.105       .  S
O814       Mn821   2.086       .  S
O814        C816   1.270       .  A
C815        C983   1.475       .  S
C815        O841   1.250       .  A
C815        O828   1.218       .  S
C816       C1123   1.482       .  S
O817        C842   1.248       .  A
O818       Mn821   2.126       .  S
O818       Mn840   2.118       .  S
O819       Mn823   1.963       .  S
O819       Mn845   1.958       .  S
O819        C842   1.221       .  S
C820        C923   1.488       .  S
C820        O822   1.271       .  A
Mn821       O834   2.110       .  S
Mn821      O1219   1.965   1_545  S
Mn821      O1211   1.957   1_545  S
O822       Mn845   2.092       .  S
Mn823       O839   2.081       .  S
Mn823       O833   1.958       .  S
O824       Mn829   2.097   1_565  S
O824       C1209   1.273       .  A
C825        C894   1.479       .  S
C825        O843   1.252       .  A
C826        C954   1.485       .  S
C826       O1207   1.273       .  A
C826        O839   1.269       .  A
Mn827      O1226   2.108       .  S
O828      Mn1204   1.957       .  S
O828       Mn831   1.965       .  S
Mn829      O1188   2.115   1_545  S
Mn829       O847   1.951       .  S
C830        C994   1.492       .  S
C830       O1186   1.271       .  A
Mn831       O838   2.091       .  S
Mn831       O846   2.097       .  S
Mn831       O836   1.960       .  S
C832        C874   1.484       .  S
C832        O848   1.271       .  A
O833       Mn845   1.956       .  S
O833        C835   1.217       .  S
C835       C1094   1.475       .  S
O836      Mn1204   1.965       .  S
O837       Mn840   2.082       .  S
C842       C1054   1.467       .  S
O843      Mn1210   2.108   1_545  S
O844      Mn1195   2.105   1_545  S
O844        C849   1.250       .  A
Mn845       O848   2.085       .  S
O847        C849   1.215       .  S
C849        C854   1.471       .  S
C850        C855   1.401       .  A
C850        H860   1.084       .  S
C851        C856   1.480       .  S
C851        C852   1.405       .  A
C852        C853   1.391       .  A
C852        F857   1.358       .  S
C853        C854   1.404       .  A
C853        H858   1.084       .  S
C855        F859   1.357       .  S
C856        C861   1.404       .  A
C856        C865   1.403       .  A
C861        C862   1.399       .  A
C862        C863   1.408       .  A
C862        H867   1.083       .  S
C863        C864   1.411       .  A
C864        C865   1.395       .  A
C864        F868   1.358   1_655  S
C865        H869   1.084   1_655  S
C870        C875   1.396       .  A
C870        H880   1.083       .  S
C871        C876   1.476       .  S
C871        C872   1.404       .  A
C872        C873   1.397       .  A
C872        F877   1.358       .  S
C873        C874   1.409       .  A
C873        H878   1.083       .  S
C875        F879   1.357       .  S
C876        C881   1.405   1_655  A
C876        C885   1.403       .  A
C881        C882   1.395       .  A
C882        C883   1.405   1_455  A
C883        C884   1.408       .  A
C884        C885   1.398       .  A
C884        F888   1.357       .  S
C885        H889   1.083       .  S
C890        C895   1.403       .  A
C890        H900   1.083       .  S
C891        C896   1.481       .  S
C891        C892   1.405       .  A
C892        C893   1.394       .  A
C892        F897   1.358       .  S
C893        C894   1.405       .  A
C893        H898   1.084       .  S
C895        F899   1.357       .  S
C896        C905   1.404       .  A
C901        C902   1.396       .  A
C901        F906   1.358       .  S
C902        H907   1.083       .  S
C903        C904   1.410       .  A
C904        C905   1.402       .  A
C904        F908   1.357       .  S
C905        H909   1.083       .  S
C910        C911   1.403       .  A
C910        C915   1.403       .  A
C910        H920   1.083   1_655  S
C911        C916   1.478       .  S
C912        C913   1.395       .  A
C912        F917   1.358       .  S
C913        H918   1.082       .  S
C914        C915   1.412       .  A
C915        F919   1.357   1_655  S
C916        C921   1.403   1_655  A
C916        C925   1.402       .  A
C921        C922   1.399       .  A
C922        C923   1.409   1_455  A
C922        H927   1.083       .  S
C923        C924   1.412       .  A
C924        C925   1.398       .  A
C924        F928   1.357       .  S
C925        H929   1.084       .  S
C930        C931   1.406       .  A
C930        C935   1.397   1_554  A
C931        C936   1.488       .  S
C931        C932   1.408       .  A
C932        C933   1.399   1_554  A
C932        F937   1.357       .  S
C933        C934   1.406       .  A
C933        H938   1.083       .  S
C934        C935   1.407       .  A
C936        C941   1.407       .  A
C936        C945   1.405       .  A
C941        C942   1.397       .  A
C941        F946   1.358       .  S
C942        C943   1.407       .  A
C942        H947   1.083       .  S
C943        C944   1.411       .  A
C944        C945   1.400       .  A
C945        H949   1.082       .  S
C950        C951   1.399       .  A
C950        C955   1.398       .  A
C950        H960   1.086       .  S
C951        C956   1.472       .  S
C951       C1335   1.402       .  A
C952       C1334   1.401       .  A
C952        C953   1.396       .  A
C952        F957   1.357   1_565  S
C953       C1337   1.407       .  A
C953        H958   1.085   1_565  S
C954       C1336   1.407       .  A
C954        C955   1.414       .  A
C955        F959   1.358       .  S
C956        C961   1.402       .  A
C956        C965   1.400       .  A
C961        C962   1.396       .  A
C961        F966   1.358       .  S
C962        C963   1.409       .  A
C962        H967   1.084       .  S
C963        C964   1.411       .  A
C964        C965   1.399       .  A
C964        F968   1.356       .  S
C965        H969   1.084       .  S
C970        C971   1.402       .  A
C970        C975   1.393       .  A
C970        H980   1.084       .  S
C971        C976   1.481       .  S
C971       C1355   1.406       .  A
C972       C1354   1.406       .  A
C972        C973   1.402       .  A
C972        F977   1.357       .  S
C973       C1357   1.409       .  A
C973        H978   1.083       .  S
C974       C1356   1.409       .  A
C974        C975   1.410       .  A
C975        F979   1.357       .  S
C976        C981   1.405       .  A
C976        C985   1.406       .  A
C981        C982   1.391       .  A
C981        F986   1.358       .  S
C982        C983   1.403       .  A
C982        H987   1.084       .  S
C983        C984   1.407       .  A
C984        C985   1.403       .  A
C984       F1371   1.357       .  S
C985       H1372   1.083       .  S
F988       C1367   1.357       .  S
H989       C1368   1.083       .  S
C990        C991   1.402       .  A
C990        C995   1.397       .  A
C990       H1383   1.083       .  S
C991        C996   1.486       .  S
C991        C992   1.407       .  A
C992        C993   1.404       .  A
C992        F997   1.357       .  S
C993        C994   1.409       .  A
C993        H998   1.082       .  S
C994        C995   1.413       .  A
C995       F1382   1.357       .  S
C996       C1001   1.406       .  A
C996       C1005   1.404       .  A
F999       C1378   1.357   1_545  S
H1000      C1373   1.083   1_545  S
C1001      C1002   1.398       .  A
C1001      F1006   1.358       .  S
C1002      C1003   1.407       .  A
C1002      H1007   1.083       .  S
C1003      C1004   1.411       .  A
C1004      C1005   1.403       .  A
C1004      F1008   1.357       .  S
C1005      H1009   1.083       .  S
C1010      C1011   1.402       .  A
C1010      C1015   1.400       .  A
C1010      H1020   1.083       .  S
C1011      C1016   1.478       .  S
C1011      C1012   1.406       .  A
C1012      C1013   1.396       .  A
C1012      F1400   1.358       .  S
C1013      C1014   1.404       .  A
C1013      H1401   1.083       .  S
C1014      C1015   1.412       .  A
C1015      F1019   1.357       .  S
C1016      C1021   1.407       .  A
C1016      C1025   1.401       .  A
F1017      C1395   1.358       .  S
H1018      C1396   1.083       .  S
C1021      C1022   1.403       .  A
C1021      F1026   1.357       .  S
C1022      C1023   1.406       .  A
C1022      H1027   1.083       .  S
C1023      C1024   1.405       .  A
C1024      C1025   1.390       .  A
C1024      F1028   1.358       .  S
C1025      H1029   1.083       .  S
C1030      C1031   1.404       .  A
C1030      C1035   1.396       .  A
C1030      H1423   1.083       .  S
C1031      C1036   1.487       .  S
C1031      C1032   1.409       .  A
C1032      C1033   1.401       .  A
C1032      F1037   1.357       .  S
C1033      C1034   1.405       .  A
C1033      H1038   1.083       .  S
C1034      C1035   1.409       .  A
C1035      F1422   1.358       .  S
C1036      C1041   1.408       .  A
C1036      C1045   1.404       .  A
F1039      C1418   1.358   1_545  S
H1040      C1413   1.083   1_545  S
C1041      C1042   1.397   1_554  A
C1041      F1046   1.358       .  S
C1042      C1043   1.407       .  A
C1042      H1047   1.083       .  S
C1043      C1044   1.411       .  A
C1044      C1045   1.399   1_556  A
C1044      F1048   1.357       .  S
C1045      H1049   1.083       .  S
C1050      C1051   1.403       .  A
C1050      C1055   1.399       .  A
C1050      H1060   1.084       .  S
C1051      C1056   1.471       .  S
C1051      C1052   1.404       .  A
C1052      C1053   1.389       .  A
C1052      F1057   1.358       .  S
C1053      C1054   1.401       .  A
C1053      H1058   1.084       .  S
C1054      C1055   1.408       .  A
C1055      F1059   1.358       .  S
C1056      C1061   1.402       .  A
C1056      C1065   1.401       .  A
C1061      C1062   1.398       .  A
C1061      F1066   1.358       .  S
C1062      C1063   1.409       .  A
C1062      H1067   1.083       .  S
C1063      C1064   1.408       .  A
C1064      C1065   1.391       .  A
C1064      F1068   1.357       .  S
C1065      H1069   1.084       .  S
C1070      C1071   1.405       .  A
C1070      C1075   1.399       .  A
C1070      H1080   1.084       .  S
C1071      C1076   1.484       .  S
C1071      C1072   1.406       .  A
C1072      C1073   1.398       .  A
C1072      F1077   1.357       .  S
C1073      C1074   1.405       .  A
C1073      H1078   1.083       .  S
C1074      C1075   1.408       .  A
C1075      F1079   1.358       .  S
C1076      C1081   1.404       .  A
C1076      C1085   1.405       .  A
C1081      C1082   1.397       .  A
C1081      F1086   1.358       .  S
C1082      C1083   1.411       .  A
C1082      H1087   1.083       .  S
C1083      C1084   1.411       .  A
C1084      C1085   1.401       .  A
C1084      F1088   1.356       .  S
C1085      H1089   1.083       .  S
C1090      C1091   1.406       .  A
C1090      C1095   1.401       .  A
C1090      H1100   1.083       .  S
C1091      C1096   1.481       .  S
C1091      C1092   1.405       .  A
C1092      C1093   1.394       .  A
C1092      F1097   1.358       .  S
C1093      C1094   1.405       .  A
C1093      H1098   1.084       .  S
C1094      C1095   1.405       .  A
C1095      F1099   1.357       .  S
C1096      C1101   1.406       .  A
C1096      C1105   1.403       .  A
C1101      C1102   1.395       .  A
C1101      F1106   1.358       .  S
C1102      C1103   1.407       .  A
C1102      H1107   1.083       .  S
C1103      C1104   1.410       .  A
C1104      C1105   1.399       .  A
C1104      F1108   1.357       .  S
C1105      H1109   1.083       .  S
C1110      C1111   1.403       .  A
C1110      C1115   1.401       .  A
C1110      H1120   1.083       .  S
C1111      C1116   1.474       .  S
C1111      C1112   1.402       .  A
C1112      C1113   1.392       .  A
C1112      F1117   1.358       .  S
C1113      C1114   1.406       .  A
C1113      H1118   1.083       .  S
C1114      C1115   1.411       .  A
C1115      F1119   1.357       .  S
C1116      C1121   1.403       .  A
C1116      C1125   1.401       .  A
C1121      C1122   1.394       .  A
C1121      F1126   1.357       .  S
C1122      C1123   1.407       .  A
C1122      H1127   1.083       .  S
C1123      C1124   1.413       .  A
C1124      C1125   1.399       .  A
C1124      F1128   1.357       .  S
C1125      H1129   1.083       .  S
C1130      C1131   1.403       .  A
C1130      C1135   1.396       .  A
C1130      H1140   1.083       .  S
C1131      C1136   1.479       .  S
C1131      C1132   1.406       .  A
C1132      C1133   1.397       .  A
C1132      F1137   1.358       .  S
C1133      C1134   1.407       .  A
C1133      H1138   1.083       .  S
C1134      C1135   1.408       .  A
C1135      F1139   1.357       .  S
C1136      C1141   1.406       .  A
C1136      C1145   1.403       .  A
C1141      C1142   1.397   1_554  A
C1141      F1146   1.358       .  S
C1142      C1143   1.406       .  A
C1142      H1147   1.083       .  S
C1143      C1144   1.406       .  A
C1144      C1145   1.395   1_556  A
C1144      F1148   1.357       .  S
C1145      H1149   1.083       .  S
C1150      N1151   1.357       .  A
C1150      N1155   1.358       .  A
C1150      C1497   1.483       .  S
N1151      C1152   1.355       .  A
C1152      N1153   1.357       .  A
C1152      C1486   1.483       .  S
N1153      C1154   1.360       .  A
C1154      N1155   1.361       .  A
C1154      C1517   1.480       .  S
C1156      N1157   1.358       .  A
C1156      N1161   1.357       .  A
C1156      C1457   1.480       .  S
N1157      C1158   1.359       .  A
C1158      N1159   1.357       .  A
C1158      C1526   1.476       .  S
N1159      C1160   1.356       .  A
C1160      N1161   1.358       .  A
C1160      C1446   1.478       .  S
C1162      N1163   1.361       .  A
C1162      N1167   1.362       .  A
C1162      C1386   1.489       .  S
N1163      C1164   1.360       .  A
C1164      N1165   1.355       .  A
C1164      C1397   1.483       .  S
N1165      C1166   1.358       .  A
C1166      N1167   1.362       .  A
C1166      C1417   1.482       .  S
C1168      N1169   1.356       .  A
C1168      N1173   1.359       .  A
C1168      C1346   1.486       .  S
N1169      C1170   1.357       .  A
C1170      N1171   1.359       .  A
C1170      C1357   1.485       .  S
N1171      C1172   1.362       .  A
C1172      N1173   1.361       .  A
C1172      C1426   1.487       .  S
C1174      N1175   1.360       .  A
C1174      N1179   1.357       .  A
C1174      C1297   1.488       .  S
N1175      C1176   1.362       .  A
C1176      N1177   1.362       .  A
C1176      C1326   1.488       .  S
N1177      C1178   1.358       .  A
C1178      N1179   1.356       .  A
C1178      C1286   1.484       .  S
C1180      N1181   1.357       .  A
C1180      N1185   1.356       .  A
C1180      C1266   1.476       .  S
N1181      C1182   1.359       .  A
C1182      N1183   1.360       .  A
C1182      C1317   1.480       .  S
N1183      C1184   1.360       .  A
C1184      N1185   1.357       .  A
C1184      C1246   1.484       .  S
O1186     Mn1212   2.085       .  S
C1187      C1466   1.491       .  S
C1187      O1220   1.271       .  A
C1187      O1217   1.275       .  A
O1188     Mn1195   2.167       .  S
O1188     Mn1206   2.129       .  S
O1188     Mn1210   2.160       .  S
O1189     Mn1223   2.089       .  S
O1189      C1199   1.273       .  A
O1190     Mn1206   2.108       .  S
O1190      C1213   1.275       .  A
O1191     Mn1210   2.104       .  S
O1191      C1218   1.253       .  A
O1192     Mn1212   1.963       .  S
O1192      C1208   1.217       .  S
C1193      C1406   1.473       .  S
C1193      O1196   1.251       .  A
C1193      O1219   1.220       .  S
O1194     Mn1195   2.163       .  S
O1194     Mn1228   2.126       .  S
O1194     Mn1210   2.168       .  S
Mn1195     O1200   2.077       .  S
O1197     Mn1204   2.086       .  S
O1197      C1199   1.270       .  A
C1198      C1366   1.475       .  S
C1198      O1224   1.250       .  A
C1198      O1211   1.218       .  S
C1199      C1506   1.482       .  S
O1200      C1225   1.248       .  A
O1201     Mn1204   2.126       .  S
O1201     Mn1223   2.118       .  S
O1202     Mn1206   1.963       .  S
O1202     Mn1228   1.958       .  S
O1202      C1225   1.221       .  S
C1203      C1306   1.488       .  S
C1203      O1205   1.271       .  A
Mn1204     O1217   2.110       .  S
O1205     Mn1228   2.092       .  S
Mn1206     O1222   2.082       .  S
Mn1206     O1216   1.958       .  S
O1207     Mn1212   2.097       .  S
C1208      C1277   1.479       .  S
C1208      O1226   1.252       .  A
C1209      C1337   1.485       .  S
C1209      O1222   1.269       .  A
O1211     Mn1214   1.965       .  S
Mn1212     O1230   1.950       .  S
C1213      C1377   1.492       .  S
Mn1214     O1221   2.091       .  S
Mn1214     O1229   2.097       .  S
Mn1214     O1219   1.960       .  S
C1215      C1257   1.484       .  S
C1215      O1231   1.271       .  A
O1216     Mn1228   1.956       .  S
O1216      C1218   1.217       .  S
C1218      C1477   1.475       .  S
O1220     Mn1223   2.082       .  S
C1225      C1437   1.467       .  S
O1227      C1232   1.250       .  A
Mn1228     O1231   2.085       .  S
O1230      C1232   1.215       .  S
C1232      C1237   1.471       .  S
C1233      C1238   1.401       .  A
C1233      H1243   1.084       .  S
C1234      C1239   1.480       .  S
C1234      C1235   1.405       .  A
C1235      C1236   1.391       .  A
C1235      F1240   1.358       .  S
C1236      C1237   1.404       .  A
C1236      H1241   1.084       .  S
C1238      F1242   1.357       .  S
C1239      C1244   1.404       .  A
C1239      C1248   1.403       .  A
C1244      C1245   1.399       .  A
C1245      C1246   1.408       .  A
C1245      H1250   1.083       .  S
C1246      C1247   1.411       .  A
C1247      C1248   1.395       .  A
C1247      F1251   1.358   1_655  S
C1248      H1252   1.084   1_655  S
C1253      C1258   1.396       .  A
C1253      H1263   1.083       .  S
C1254      C1259   1.476       .  S
C1254      C1255   1.404       .  A
C1255      C1256   1.397       .  A
C1255      F1260   1.358       .  S
C1256      C1257   1.409       .  A
C1256      H1261   1.083       .  S
C1258      F1262   1.357       .  S
C1259      C1264   1.405   1_655  A
C1259      C1268   1.403       .  A
C1264      C1265   1.395       .  A
C1265      C1266   1.405   1_455  A
C1266      C1267   1.408       .  A
C1267      C1268   1.398       .  A
C1267      F1271   1.357       .  S
C1268      H1272   1.083       .  S
C1273      C1278   1.403       .  A
C1273      H1283   1.083       .  S
C1274      C1279   1.481       .  S
C1274      C1275   1.405       .  A
C1275      C1276   1.394       .  A
C1275      F1280   1.358       .  S
C1276      C1277   1.405       .  A
C1276      H1281   1.084       .  S
C1278      F1282   1.357       .  S
C1279      C1288   1.404       .  A
C1284      C1285   1.396       .  A
C1284      F1289   1.358       .  S
C1285      H1290   1.083       .  S
C1286      C1287   1.410       .  A
C1287      C1288   1.402       .  A
C1287      F1291   1.357       .  S
C1288      H1292   1.083       .  S
C1293      C1294   1.403       .  A
C1293      C1298   1.403       .  A
C1293      H1303   1.083   1_655  S
C1294      C1299   1.478       .  S
C1295      C1296   1.395       .  A
C1295      F1300   1.358       .  S
C1296      H1301   1.082       .  S
C1297      C1298   1.412       .  A
C1298      F1302   1.357   1_655  S
C1299      C1304   1.403   1_655  A
C1299      C1308   1.402       .  A
C1304      C1305   1.399       .  A
C1305      C1306   1.409   1_455  A
C1305      H1310   1.083       .  S
C1306      C1307   1.412       .  A
C1307      C1308   1.398       .  A
C1307      F1311   1.357       .  S
C1308      H1312   1.084       .  S
C1313      C1314   1.406       .  A
C1313      C1318   1.397   1_554  A
C1314      C1319   1.488       .  S
C1314      C1315   1.408       .  A
C1315      C1316   1.399   1_554  A
C1315      F1320   1.357       .  S
C1316      C1317   1.406       .  A
C1316      H1321   1.083       .  S
C1317      C1318   1.407       .  A
C1319      C1324   1.407       .  A
C1319      C1328   1.405       .  A
C1324      C1325   1.397       .  A
C1324      F1329   1.358       .  S
C1325      C1326   1.407       .  A
C1325      H1330   1.083       .  S
C1326      C1327   1.411       .  A
C1327      C1328   1.400       .  A
C1328      H1332   1.082       .  S
C1333      C1334   1.399       .  A
C1333      C1338   1.398       .  A
C1333      H1343   1.086       .  S
C1334      C1339   1.472       .  S
C1335      C1336   1.396       .  A
C1335      F1340   1.357       .  S
C1336      H1341   1.085       .  S
C1337      C1338   1.414       .  A
C1338      F1342   1.358       .  S
C1339      C1344   1.402       .  A
C1339      C1348   1.400       .  A
C1344      C1345   1.396       .  A
C1344      F1349   1.358       .  S
C1345      C1346   1.409       .  A
C1345      H1350   1.084       .  S
C1346      C1347   1.411       .  A
C1347      C1348   1.399       .  A
C1347      F1351   1.356       .  S
C1348      H1352   1.084       .  S
C1353      C1354   1.402       .  A
C1353      C1358   1.393       .  A
C1353      H1363   1.084       .  S
C1354      C1359   1.481       .  S
C1355      C1356   1.402       .  A
C1355      F1360   1.357       .  S
C1356      H1361   1.083       .  S
C1357      C1358   1.410       .  A
C1358      F1362   1.357       .  S
C1359      C1364   1.405       .  A
C1359      C1368   1.406       .  A
C1364      C1365   1.391       .  A
C1364      F1369   1.358   1_565  S
C1365      C1366   1.403       .  A
C1365      H1370   1.084   1_565  S
C1366      C1367   1.407       .  A
C1367      C1368   1.403       .  A
C1373      C1374   1.402       .  A
C1373      C1378   1.397       .  A
C1374      C1379   1.486       .  S
C1374      C1375   1.407       .  A
C1375      C1376   1.404       .  A
C1375      F1380   1.357       .  S
C1376      C1377   1.409       .  A
C1376      H1381   1.082       .  S
C1377      C1378   1.413       .  A
C1379      C1384   1.406       .  A
C1379      C1388   1.404       .  A
C1384      C1385   1.398       .  A
C1384      F1389   1.358       .  S
C1385      C1386   1.407       .  A
C1385      H1390   1.083       .  S
C1386      C1387   1.411       .  A
C1387      C1388   1.403       .  A
C1387      F1391   1.357       .  S
C1388      H1392   1.083       .  S
C1393      C1394   1.402       .  A
C1393      C1398   1.400       .  A
C1393      H1403   1.083       .  S
C1394      C1399   1.478       .  S
C1394      C1395   1.406   1_565  A
C1395      C1396   1.396       .  A
C1396      C1397   1.404   1_545  A
C1397      C1398   1.412       .  A
C1398      F1402   1.357       .  S
C1399      C1404   1.407       .  A
C1399      C1408   1.401       .  A
C1404      C1405   1.403       .  A
C1404      F1409   1.357   1_565  S
C1405      C1406   1.406       .  A
C1405      H1410   1.083   1_565  S
C1406      C1407   1.405       .  A
C1407      C1408   1.390       .  A
C1407      F1411   1.358       .  S
C1408      H1412   1.083       .  S
C1413      C1414   1.404       .  A
C1413      C1418   1.396       .  A
C1414      C1419   1.487       .  S
C1414      C1415   1.409       .  A
C1415      C1416   1.401       .  A
C1415      F1420   1.357       .  S
C1416      C1417   1.405       .  A
C1416      H1421   1.083       .  S
C1417      C1418   1.409       .  A
C1419      C1424   1.408       .  A
C1419      C1428   1.404       .  A
C1424      C1425   1.398   1_554  A
C1424      F1429   1.358       .  S
C1425      C1426   1.407       .  A
C1425      H1430   1.083       .  S
C1426      C1427   1.411       .  A
C1427      C1428   1.399   1_556  A
C1427      F1431   1.357       .  S
C1428      H1432   1.083       .  S
C1433      C1434   1.403       .  A
C1433      C1438   1.399       .  A
C1433      H1443   1.084       .  S
C1434      C1439   1.471       .  S
C1434      C1435   1.404       .  A
C1435      C1436   1.389       .  A
C1435      F1440   1.358       .  S
C1436      C1437   1.401       .  A
C1436      H1441   1.084       .  S
C1437      C1438   1.408       .  A
C1438      F1442   1.358       .  S
C1439      C1444   1.402       .  A
C1439      C1448   1.401       .  A
C1444      C1445   1.398       .  A
C1444      F1449   1.358       .  S
C1445      C1446   1.409       .  A
C1445      H1450   1.083       .  S
C1446      C1447   1.408       .  A
C1447      C1448   1.391       .  A
C1447      F1451   1.357       .  S
C1448      H1452   1.084       .  S
C1453      C1454   1.405       .  A
C1453      C1458   1.399       .  A
C1453      H1463   1.084       .  S
C1454      C1459   1.484       .  S
C1454      C1455   1.406       .  A
C1455      C1456   1.398       .  A
C1455      F1460   1.357       .  S
C1456      C1457   1.405       .  A
C1456      H1461   1.083       .  S
C1457      C1458   1.408       .  A
C1458      F1462   1.358       .  S
C1459      C1464   1.404       .  A
C1459      C1468   1.405       .  A
C1464      C1465   1.397       .  A
C1464      F1469   1.358       .  S
C1465      C1466   1.411       .  A
C1465      H1470   1.083       .  S
C1466      C1467   1.411       .  A
C1467      C1468   1.401       .  A
C1467      F1471   1.356       .  S
C1468      H1472   1.083       .  S
C1473      C1474   1.406       .  A
C1473      C1478   1.401       .  A
C1473      H1483   1.083       .  S
C1474      C1479   1.481       .  S
C1474      C1475   1.405       .  A
C1475      C1476   1.394       .  A
C1475      F1480   1.358       .  S
C1476      C1477   1.405       .  A
C1476      H1481   1.084       .  S
C1477      C1478   1.405       .  A
C1478      F1482   1.357       .  S
C1479      C1484   1.406       .  A
C1479      C1488   1.403       .  A
C1484      C1485   1.395       .  A
C1484      F1489   1.358       .  S
C1485      C1486   1.407       .  A
C1485      H1490   1.083       .  S
C1486      C1487   1.410       .  A
C1487      C1488   1.399       .  A
C1487      F1491   1.357       .  S
C1488      H1492   1.083       .  S
C1493      C1494   1.402       .  A
C1493      C1498   1.401       .  A
C1493      H1503   1.083       .  S
C1494      C1499   1.474       .  S
C1494      C1495   1.402       .  A
C1495      C1496   1.392       .  A
C1495      F1500   1.358       .  S
C1496      C1497   1.406       .  A
C1496      H1501   1.083       .  S
C1497      C1498   1.411       .  A
C1498      F1502   1.357       .  S
C1499      C1504   1.403       .  A
C1499      C1508   1.401       .  A
C1504      C1505   1.394       .  A
C1504      F1509   1.357       .  S
C1505      C1506   1.407       .  A
C1505      H1510   1.083       .  S
C1506      C1507   1.413       .  A
C1507      C1508   1.399       .  A
C1507      F1511   1.357       .  S
C1508      H1512   1.083       .  S
C1513      C1514   1.403       .  A
C1513      C1518   1.396       .  A
C1513      H1523   1.083       .  S
C1514      C1519   1.479       .  S
C1514      C1515   1.406       .  A
C1515      C1516   1.397       .  A
C1515      F1520   1.358       .  S
C1516      C1517   1.407       .  A
C1516      H1521   1.083       .  S
C1517      C1518   1.408       .  A
C1518      F1522   1.357       .  S
C1519      C1524   1.406       .  A
C1519      C1528   1.403       .  A
C1524      C1525   1.397   1_554  A
C1524      F1529   1.358       .  S
C1525      C1526   1.406       .  A
C1525      H1530   1.083       .  S
C1526      C1527   1.406       .  A
C1527      C1528   1.395   1_556  A
C1527      F1531   1.357       .  S
C1528      H1532   1.083       .  S
