geometry optimzed in LAMMPS
_audit_creation_date              2020-11-30 
_audit_creation_method            'lammps2cif' 
_symmetry_space_group_name_H-M    'P1' 
_symmetry_Int_Tables_number       1 
_symmetry_cell_setting            triclinic 
loop_ 
_symmetry_equiv_pos_as_xyz 
  x,y,z 
_cell_length_a                    35.03246709 
_cell_length_b                    33.646222905637906 
_cell_length_c                    69.90506340858896 
_cell_angle_alpha                 89.58497949237902 
_cell_angle_beta                  90.09058469362996 
_cell_angle_gamma                 121.44305108131748 
loop_ 
_atom_site_label 
_atom_site_type_symbol 
_atom_site_fract_x 
_atom_site_fract_y 
_atom_site_fract_z 
_atom_site_charge 
C1          C  0.28133427  0.28864034  0.12998429     0.80000
N2          N  0.31811001  0.28784228  0.13595728    -0.78300
C3          C  0.35082110  0.32378307  0.14628073     0.82500
N4          N  0.34658207  0.36061672  0.15032929    -0.78200
C5          C  0.31035224  0.36183319  0.14464846     0.82600
N6          N  0.27779750  0.32588325  0.13455695    -0.79900
C7          C  0.67503074  0.35806320  0.23134107     0.45300
H8          H  0.67843842  0.35949941  0.24716502    -0.03700
C9          C  0.66769873  0.35574918  0.19420339     0.45300
H10         H  0.66455076  0.35476274  0.17836894    -0.03700
C11         C  0.71332308  0.40072063  0.22125128    -0.17400
C12         C  0.67440148  0.31625587  0.22229139    -0.17200
C13         C  0.63237082  0.35546195  0.22421785    -0.17600
C14         C  0.70948512  0.39976998  0.20169381    -0.17600
C15         C  0.67078962  0.31524585  0.20267516    -0.17100
C16         C  0.62829006  0.35402861  0.20464188    -0.17400
C17         C  0.34784259  0.69208579  0.23319931     0.45300
H18         H  0.34947284  0.69525626  0.24902882    -0.03700
C19         C  0.34391280  0.68478769  0.19607621     0.45300
H20         H  0.34225065  0.68127397  0.18025801     0.03100
C21         C  0.33862472  0.64477229  0.22607206    -0.17400
C22         C  0.31094067  0.69767963  0.22420970    -0.17200
C23         C  0.39093562  0.72870259  0.22293354    -0.17600
C24         C  0.33747193  0.64155571  0.20648165    -0.17600
C25         C  0.30839381  0.69311516  0.20462040    -0.17100
C26         C  0.38859298  0.72509057  0.20335278    -0.17400
C27         C  0.02242603  0.71000487  0.11120453     0.80000
N28         N  0.98156427  0.67738535  0.11827509    -0.78300
C29         C  0.97774255  0.64565036  0.13152097     0.82500
N30         N  0.01516518  0.64678001  0.13755617    -0.78200
C31         C  0.05598876  0.67919249  0.13062687     0.82600
N32         N  0.05953746  0.71111097  0.11767755    -0.79900
C33         C  0.70368954  0.02678905  0.11002295     0.80000
N34         N  0.70791424  0.06542815  0.11825615    -0.78300
C35         C  0.67774907  0.06145225  0.13151975     0.82500
N36         N  0.64336378  0.01844495  0.13646157    -0.78200
C37         C  0.63899428  0.97970966  0.12853254     0.82600
N38         N  0.66924961  0.98388234  0.11536432    -0.79900
C39         C  0.02223870  0.74135057  0.30014239     0.80000
N40         N  0.98156088  0.70702002  0.29369414    -0.78300
C41         C  0.97865590  0.67411459  0.28163758     0.82500
N42         N  0.01621734  0.67511899  0.27630739    -0.78200
C43         C  0.05692385  0.70875758  0.28259579     0.82600
N44         N  0.05965971  0.74200107  0.29441533    -0.79900
C45         C  0.70588589  0.02486141  0.31698967     0.80000
N46         N  0.71276673  0.06706762  0.31148858    -0.78300
C47         C  0.68844593  0.06976518  0.29696870     0.82500
N48         N  0.65792226  0.03058276  0.28786189    -0.78200
C49         C  0.65125848  0.98841674  0.29278783     0.82600
N50         N  0.67530153  0.98568934  0.30749161    -0.79900
C51         C  0.32934548  0.32986188  0.32026545     0.80000
N52         N  0.31923305  0.36018957  0.31202483    -0.78300
C53         C  0.34426842  0.38822389  0.29719708     0.82500
N54         N  0.37957117  0.38572360  0.29096661    -0.78200
C55         C  0.38972408  0.35573727  0.29894522     0.82600
N56         N  0.36444674  0.32756676  0.31345021    -0.79900
Zr57       Zr  0.99887736  0.00154356  0.50168223     2.17500
O58         O  0.98940469  0.96129129  0.53209251    -0.51500
O59         O  0.99744501  0.05872252  0.52239492    -0.74700
O60         O  0.06933133  0.02083723  0.51665277    -0.81500
O61         O  0.87365105  0.91979872  0.49058569    -0.83200
O62         O  0.12658798  0.05752821  0.49536169    -0.78900
O63         O  0.92677699  0.93868343  0.51323584    -0.90500
O64         O  0.00501984  0.11832021  0.50432461    -0.76500
O65         O  0.04986381  0.07505881  0.48755761    -0.86000
O66         O  0.95401071  0.02592699  0.48603338    -0.85600
O67         O  0.04393731  0.98677388  0.48032825    -0.72400
O68         O  0.95580627  0.94199667  0.47865594    -0.84500
Zr69       Zr  0.00712115  0.02672680  0.42636485     2.26400
Zr70       Zr  0.09367671  0.06108771  0.46551197     2.06300
Zr71       Zr  0.91189327  0.96744205  0.46263403     2.10000
Zr72       Zr  0.00535517  0.09875720  0.47128662     1.78800
O73         O  0.85121701  0.89110038  0.45250065    -0.93300
O74         O  0.07192723  0.17534420  0.47642466    -0.41200
O75         O  0.96233761  0.04100359  0.44784277    -0.77800
O76         O  0.05044493  0.08717518  0.44905754    -0.96500
O77         O  0.05189390  0.00263763  0.44210345    -0.89800
O78         O  0.95580969  0.95324938  0.44057803    -0.92600
C79         C  0.00094962  0.09844818  0.52050622     1.01100
C80         C  0.88630693  0.91465178  0.50719203     1.14100
C81         C  0.11075661  0.04055533  0.51195531     1.04800
O82         O  0.14715470  0.14106460  0.47472346    -0.94800
O83         O  0.13401667  0.10108009  0.43668321    -0.90500
O84         O  0.08153381  0.07908970  0.41344856    -0.83700
C85         C  0.12207750  0.10191700  0.41940623     1.11500
O86         O  0.98593519  0.86762177  0.47919682    -0.96700
Zr87       Zr  0.00092442  0.92979552  0.45664063     1.88900
O88         O  0.00711658  0.96935930  0.40527665    -0.73400
O89         O  0.14968870  0.04118199  0.45824067    -0.52700
O90         O  0.06613145  0.92192136  0.45899611    -0.97300
O91         O  0.93900970  0.85293715  0.44765430    -0.54600
O92         O  0.01397730  0.91816579  0.42381074    -0.73900
C93         C  0.01242555  0.93463703  0.40743994     0.98400
O94         O  0.00751069  0.06833099  0.39752911    -0.62700
O95         O  0.85910222  0.99009513  0.47222432    -0.57500
O96         O  0.93860739  0.01357461  0.41185588    -0.94200
O97         O  0.88136644  0.97769265  0.43317299    -0.92600
O98         O  0.94113699  0.10838286  0.47269702    -0.93000
O99         O  0.00980346  0.15700578  0.44900275    -0.91800
C100        C  0.89749087  0.99575039  0.41671306     1.17300
H101        H  0.93421030  0.02853914  0.49496598     0.33200
H102        H  0.06958825  0.11662048  0.44262850     0.44100
H103        H  0.93735840  0.93123464  0.43090255     0.37600
H104        H  0.06024119  0.97524787  0.48716077     0.34100
H105        H  0.08837786  0.17059608  0.48683769     0.25900
H106        H  0.17803638  0.06726318  0.46339658     0.31800
H107        H  0.08358911  0.93672197  0.44719760     0.37700
H108        H  0.93588477  0.11034033  0.48647443     0.32200
H109        H  0.87023632  0.02072115  0.46597284     0.31000
H110        H  0.86317350  0.88237908  0.44156158     0.32700
H111        H  0.93180409  0.85600614  0.43423206     0.31700
H112        H  0.01579688  0.14798008  0.43642524     0.35700
H113        H  0.02808405  0.10186893  0.40017248     0.28400
H114        H  0.00578791  0.98595431  0.54171303     0.32700
H115        H  0.99413416  0.84736673  0.47241486     0.35500
H116        H  0.83120409  0.96854789  0.46528286     0.28100
H117        H  0.02262631  0.06062939  0.38754958     0.41000
H118        H  0.17677005  0.14420392  0.47355474     0.31000
H119        H  0.09079120  0.18162423  0.46493656     0.38700
H120        H  0.91315557  0.84875933  0.45511911     0.30500
H121        H  0.14231677  0.01439246  0.46671578     0.30600
H122        H  0.00634370  0.94532499  0.53093456     0.30800
Zr123      Zr  0.00907853  0.02224465  0.92665152     2.17500
O124        O  0.04594101  0.06957331  0.89825351    -0.51500
O125        O  0.95137026  0.96455146  0.90553422    -0.74700
O126        O  0.05965374  0.00306219  0.91128683    -0.81500
O127        O  0.95184089  0.09188781  0.93610791    -0.83200
O128        O  0.08204806  0.96842228  0.93259735    -0.78900
O129        O  0.98996939  0.07704556  0.91392434    -0.90500
O130        O  0.90189951  0.90359505  0.92393135    -0.76500
O131        O  0.99215837  0.95066261  0.94127759    -0.86000
O132        O  0.93906498  0.99363123  0.94225024    -0.85600
O133        O  0.07031526  0.04302202  0.94826317    -0.72400
O134        O  0.02143006  0.08098654  0.94932094    -0.84500
Zr135      Zr  0.99191384  0.99775991  0.00166882     2.26400
Zr136      Zr  0.05195684  0.97082091  0.96344116     2.06300
Zr137      Zr  0.95115225  0.05147374  0.96516682     2.10000
Zr138      Zr  0.92244202  0.92243964  0.95707142     1.78800
O139        O  0.96914904  0.12995972  0.97265340    -0.93300
O140        O  0.91587857  0.84712721  0.95357942    -0.41200
O141        O  0.93191975  0.97918403  0.98003228    -0.77800
O142        O  0.98099352  0.93902796  0.97918734    -0.96500
O143        O  0.06270097  0.02759199  0.98665040    -0.89800
O144        O  0.00965005  0.06990743  0.98754024    -0.92600
C145        C  0.91582474  0.92422065  0.90772183     1.01100
C146        C  0.96913102  0.09703963  0.91940836     1.14100
C147        C  0.08168633  0.98356944  0.91577491     1.04800
O148        O  0.04226778  0.89460216  0.95827156    -0.94800
O149        O  0.05817220  0.93698392  0.99344398    -0.90500
O150        O  0.02252310  0.95463399  0.01577594    -0.83700
C151        C  0.04452831  0.93579881  0.01063144     1.11500
O152        O  0.13287086  0.15955503  0.95025727    -0.96700
Zr153      Zr  0.07958125  0.09882708  0.97198157     1.88900
O154        O  0.04497554  0.05605732  0.02360826    -0.73400
O155        O  0.13250748  0.00732230  0.96758521    -0.52700
O156        O  0.15545778  0.11418766  0.97493547    -0.97300
O157        O  0.08206508  0.17241504  0.97450279    -0.54600
O158        O  0.09764566  0.11629257  0.00579063    -0.73900
C159        C  0.08107130  0.09598265  0.02194422     0.98400
O160        O  0.94433451  0.94406279  0.02682309    -0.62700
O161        O  0.87225711  0.02259096  0.95960281    -0.57500
O162        O  0.94001588  0.01384749  0.01745179    -0.94200
O163        O  0.91547433  0.04587272  0.99559844    -0.92600
O164        O  0.84530374  0.90274660  0.95352216    -0.93000
O165        O  0.87342303  0.86831514  0.98171732    -0.91800
C166        C  0.91639519  0.03121755  0.01250080     1.17300
H167        H  0.91601602  0.98903630  0.93335733     0.33200
H168        H  0.97316471  0.91040727  0.98576753     0.44100
H169        H  0.01111688  0.09132882  0.99704749     0.37600
H170        H  0.09798153  0.05583829  0.94119197     0.34100
H171        H  0.89043798  0.82953951  0.94473044     0.25900
H172        H  0.13878998  0.98282946  0.96405235     0.31800
H173        H  0.15599024  0.10028824  0.98739083     0.37700
H174        H  0.82996500  0.87244083  0.94684435     0.32200
H175        H  0.86860561  0.02023083  0.94553775     0.31000
H176        H  0.93977795  0.12748967  0.97352767     0.32700
H177        H  0.06709598  0.17051125  0.98676388     0.31700
H178        H  0.86546192  0.88690083  0.98986838     0.35700
H179        H  0.93715209  0.91281891  0.02266351     0.28400
H180        H  0.03963145  0.04736566  0.88775242     0.32700
H181        H  0.15519023  0.18483326  0.95853543     0.35500
H182        H  0.85652361  0.98987409  0.96417935     0.28100
H183        H  0.96377933  0.95125851  0.03817258     0.41000
H184        H  0.01221566  0.87214897  0.96348209     0.31000
H185        H  0.94251065  0.85380711  0.94604429     0.38700
H186        H  0.06115221  0.17080423  0.96455539     0.30500
H187        H  0.14610965  0.03068983  0.95713934     0.30600
H188        H  0.07847324  0.08492151  0.90066295     0.30800
C189        C  0.98561231  0.27803512  0.63264062     0.80000
N190        N  0.02364230  0.31458311  0.64001618    -0.78300
C191        C  0.02159033  0.34075032  0.65416620     0.82500
N192        N  0.98126049  0.33058693  0.66075801    -0.78200
C193        C  0.94288274  0.29457554  0.65359998     0.82600
N194        N  0.94515885  0.26832413  0.63946345    -0.79900
C195        C  0.98646901  0.32501733  0.82038147     0.80000
N196        N  0.02595537  0.35359198  0.81119046    -0.78300
C197        C  0.02716554  0.37514265  0.79447112     0.82500
N198        N  0.98830605  0.36790074  0.78695038    -0.78200
C199        C  0.94867935  0.33974537  0.79592772     0.82600
N200        N  0.94785375  0.31842929  0.81265227    -0.79900
C201        C  0.66533987  0.34131838  0.69453619     0.45300
H202        H  0.66690097  0.33928289  0.67872867    -0.03700
C203        C  0.66198924  0.34637742  0.73166893     0.45300
H204        H  0.66063634  0.34868925  0.74747817    -0.03700
C205        C  0.62012901  0.30489030  0.70326336    -0.17400
C206        C  0.69968663  0.33432638  0.70509432    -0.17200
C207        C  0.67333306  0.38817877  0.70146607    -0.17600
C208        C  0.61854832  0.30686074  0.72288951    -0.17600
C209        C  0.69882091  0.33820498  0.72460563    -0.17100
C210        C  0.67041956  0.39030116  0.72103786    -0.17400
C211        C  0.33117363  0.67634583  0.73282851     0.45300
H212        H  0.33274622  0.67886147  0.74866371    -0.03700
C213        C  0.32799472  0.67094492  0.69556513     0.45300
H214        H  0.32672817  0.66894966  0.67970058    -0.03700
C215        C  0.32346689  0.71256403  0.72303966    -0.17400
C216        C  0.37414433  0.68365513  0.72369512    -0.17200
C217        C  0.29341360  0.62917983  0.72527984    -0.17600
C218        C  0.32304457  0.71037006  0.70338101    -0.17600
C219        C  0.37177343  0.67939456  0.70413236    -0.17100
C220        C  0.29140281  0.62692326  0.70562773    -0.17400
C221        C  0.30232858  0.01049607  0.61158251     0.80000
N222        N  0.29134692  0.96796430  0.61872948    -0.78300
C223        C  0.31391650  0.96496761  0.63398636     0.82500
N224        N  0.34700407  0.00442686  0.64213156    -0.78200
C225        C  0.35834034  0.04677514  0.63514504     0.82600
N226        N  0.33612870  0.04965313  0.61983562    -0.79900
C227        C  0.67145323  0.69572097  0.60720160     0.80000
N228        N  0.67893284  0.66275472  0.61451531    -0.78300
C229        C  0.65575087  0.63679327  0.63002018     0.82500
N230        N  0.62506194  0.64440714  0.63818498    -0.78200
C231        C  0.61680594  0.67668490  0.63100393     0.82600
N232        N  0.64002857  0.70221316  0.61547673    -0.79900
C233        C  0.70902655  0.73270976  0.80062982     0.80000
N234        N  0.71274365  0.69724828  0.79361401    -0.78300
C235        C  0.68551658  0.66996495  0.77940156     0.82500
N236        N  0.65444423  0.67817198  0.77218570    -0.78200
C237        C  0.65002526  0.71321399  0.77892354     0.82600
N238        N  0.67738570  0.74049697  0.79324627    -0.79900
C239        C  0.28856049  0.00657791  0.81049457     0.80000
N240        N  0.32091732  0.04973857  0.80420643    -0.78300
C241        C  0.34822780  0.05385071  0.78951825     0.82500
N242        N  0.34333623  0.01491720  0.78144986    -0.78200
C243        C  0.31193084  0.97187146  0.78780718     0.82600
N244        N  0.28464384  0.96813016  0.80231038    -0.79900
C245        C  0.61401021  0.71937789  0.77113393    -0.20100
C246        C  0.59753267  0.70465008  0.75240959     0.36200
C247        C  0.55953973  0.70459927  0.74628183    -0.26000
C248        C  0.53804297  0.72008180  0.75822181     0.02600
C249        C  0.55520314  0.73681445  0.77658929     0.27400
C250        C  0.59320159  0.73637221  0.78291249    -0.25200
N251        N  0.61925418  0.68972093  0.73949126    -0.82500
H252        H  0.54619597  0.69156655  0.73218069     0.13200
C253        C  0.49622997  0.71591762  0.75138617     0.02600
N254        N  0.53339420  0.75318897  0.78880513    -0.81100
H255        H  0.60557283  0.74775520  0.79727379     0.18000
C256        C  0.45527744  0.68022598  0.75884329    -0.26000
C257        C  0.41453735  0.66998733  0.75057892     0.36100
C258        C  0.41520492  0.69654808  0.73473857    -0.20000
C259        C  0.45609695  0.73475268  0.72842635    -0.25200
C260        C  0.49674595  0.74411610  0.73628971     0.27400
H261        H  0.45528114  0.65887572  0.77052440     0.13200
N262        N  0.37289723  0.63191238  0.75779807    -0.82500
H263        H  0.45634639  0.75636837  0.71680864     0.18100
N264        N  0.53844617  0.78202991  0.72900935    -0.81100
H265        H  0.37838906  0.61658886  0.76970991     0.33700
H266        H  0.35896496  0.60634355  0.74726149     0.38200
H267        H  0.53270009  0.80026117  0.71835237     0.33600
H268        H  0.55535534  0.76792183  0.72234497     0.30300
H269        H  0.55000338  0.76407634  0.80191169     0.33700
H270        H  0.53613713  0.78262938  0.78227054     0.30300
H271        H  0.59605103  0.65557459  0.73536678     0.38200
H272        H  0.62876415  0.71096711  0.72728858     0.33700
C273        C  0.40687272  0.67986645  0.69226659    -0.20100
C274        C  0.41860477  0.64571723  0.69451639     0.36200
C275        C  0.45403327  0.64967026  0.68386848    -0.26000
C276        C  0.47932635  0.68758673  0.67151737     0.02600
C277        C  0.46750603  0.72153882  0.66913349     0.27400
C278        C  0.43071922  0.71678516  0.67930379    -0.25200
N279        N  0.39528551  0.60629110  0.70719961    -0.82500
H280        H  0.46207528  0.62275660  0.68536213     0.13200
C281        C  0.51767329  0.69031892  0.66122357     0.02600
N282        N  0.49341340  0.76108521  0.65678022    -0.81100
H283        H  0.42175269  0.74299417  0.67776784     0.18000
C284        C  0.52026622  0.69471011  0.64120538    -0.26000
C285        C  0.55376221  0.69284502  0.63090799     0.36100
C286        C  0.58427049  0.68484973  0.64088212    -0.20000
C287        C  0.58223801  0.68162189  0.66091657    -0.25200
C288        C  0.54984779  0.68506352  0.67120443     0.27400
H289        H  0.49530372  0.69828311  0.63354099     0.13200
N290        N  0.55528370  0.69656525  0.61039256    -0.82500
H291        H  0.60610205  0.67627572  0.66861578     0.18100
N292        N  0.54916217  0.68274505  0.69176041    -0.81100
H293        H  0.52845560  0.69893436  0.60529377     0.33700
H294        H  0.58417808  0.72810284  0.60673267     0.38200
H295        H  0.57474105  0.67825180  0.69687552     0.33600
H296        H  0.55581293  0.71491321  0.69680339     0.30300
H297        H  0.48021928  0.78270180  0.65663420     0.33700
H298        H  0.52554412  0.78058490  0.66256960     0.30300
H299        H  0.36804967  0.60495066  0.71382620     0.38200
H300        H  0.41750850  0.60988898  0.71801027     0.33700
C301        C  0.31703678  0.74605784  0.73419739    -0.20100
C302        C  0.28035781  0.75174713  0.73090163     0.36200
C303        C  0.27769764  0.78634132  0.74081597    -0.26000
C304        C  0.31009847  0.81420062  0.75432688     0.02600
C305        C  0.34513389  0.80631892  0.75861783     0.27400
C306        C  0.34819252  0.77240224  0.74841911    -0.25200
N307        N  0.24600310  0.72243471  0.71754417    -0.82500
H308        H  0.25065697  0.79220695  0.73778989     0.13200
C309        C  0.30867421  0.85374198  0.76244969     0.02600
N310        N  0.37875774  0.83277790  0.77274444    -0.81100
H311        H  0.37593183  0.76753690  0.75124828     0.18000
C312        C  0.28286753  0.84714771  0.77876444    -0.26000
C313        C  0.28240200  0.88472991  0.78711386     0.36100
C314        C  0.30833473  0.92990648  0.77896347    -0.20000
C315        C  0.33280098  0.93561043  0.76213268    -0.25200
C316        C  0.33328249  0.89805194  0.75384841     0.27400
H317        H  0.26350671  0.81277946  0.78520085     0.13200
N318        N  0.25614319  0.87671238  0.80399617    -0.82500
H319        H  0.35214720  0.96963052  0.75543269     0.18100
N320        N  0.35844346  0.90455489  0.73664771    -0.81100
H321        H  0.26697560  0.86263608  0.81453907     0.33700
H322        H  0.22280783  0.85200526  0.80081290     0.38200
H323        H  0.37384759  0.93904692  0.73182824     0.33600
H324        H  0.38415991  0.89864085  0.74002700     0.30300
H325        H  0.37614335  0.80950056  0.78339787     0.33700
H326        H  0.37323664  0.85691533  0.77948286     0.30300
H327        H  0.23017325  0.68826413  0.72276048     0.38200
H328        H  0.22160692  0.73139157  0.71669800     0.33700
C329        C  0.30343998  0.91990102  0.64225167    -0.20100
C330        C  0.30234525  0.88472270  0.63097489     0.36200
C331        C  0.30310316  0.84764877  0.64003955    -0.26000
C332        C  0.30412311  0.84494431  0.66005865     0.02600
C333        C  0.30169980  0.87819548  0.67128700     0.27400
C334        C  0.30182180  0.91556368  0.66226112    -0.25200
N335        N  0.30342006  0.88830515  0.61047441    -0.82500
H336        H  0.30472088  0.82182342  0.63149610     0.13200
C337        C  0.31078045  0.80925803  0.66927729     0.02600
N338        N  0.30051663  0.87453356  0.69182450    -0.81100
H339        H  0.30223945  0.94242409  0.67089662     0.18000
C340        C  0.34832401  0.82411517  0.68102045    -0.26000
C341        C  0.35384536  0.79201385  0.69156711     0.36100
C342        C  0.32118319  0.74435840  0.69053256    -0.20000
C343        C  0.28563842  0.72897881  0.67760685    -0.25200
C344        C  0.27981972  0.76116858  0.66703705     0.27400
H345        H  0.37306246  0.86094765  0.68225463     0.13200
N346        N  0.39272024  0.80776067  0.70324999    -0.82500
H347        H  0.26120399  0.69202565  0.67654805     0.18100
N348        N  0.24206510  0.74539606  0.65453808    -0.81100
H349        H  0.39399398  0.83177193  0.71303746     0.33700
H350        H  0.42093404  0.82513425  0.69442453     0.38200
H351        H  0.22267099  0.70899991  0.65447232     0.33600
H352        H  0.22188116  0.75693354  0.66013057     0.30300
H353        H  0.29926620  0.90206464  0.69798169     0.33700
H354        H  0.27080315  0.84394473  0.69564866     0.30300
H355        H  0.27275318  0.88357954  0.60617544     0.38200
H356        H  0.30531122  0.86109316  0.60437966     0.33700
C357        C  0.66359804  0.60085199  0.63848949    -0.20100
C358        C  0.68560805  0.58175280  0.62854715     0.36200
C359        C  0.68948950  0.54610927  0.63725652    -0.26000
C360        C  0.67225573  0.52961033  0.65559848     0.02600
C361        C  0.65036599  0.54827037  0.66549660     0.27400
C362        C  0.64662449  0.58385393  0.65696898    -0.25200
N363        N  0.70311345  0.59760669  0.60959988    -0.82500
H364        H  0.70620436  0.53126930  0.62979238     0.13200
C365        C  0.67727908  0.49295395  0.66474046     0.02600
N366        N  0.63184678  0.53071170  0.68419426    -0.81100
H367        H  0.62991557  0.59806248  0.66486821     0.18000
C368        C  0.71064675  0.50586217  0.67855751    -0.26000
C369        C  0.71193805  0.47210649  0.68998418     0.36100
C370        C  0.67832862  0.42473331  0.68783166    -0.20000
C371        C  0.64687685  0.41174651  0.67306535    -0.25200
C372        C  0.64574786  0.44552425  0.66158015     0.27400
H373        H  0.73487155  0.54249067  0.68079713     0.13200
N374        N  0.74673019  0.48576355  0.70391567    -0.82500
H375        H  0.62141408  0.37534103  0.67125147     0.18100
N376        N  0.61171005  0.43205928  0.64727132    -0.81100
H377        H  0.76839436  0.52193286  0.70385864     0.33700
H378        H  0.76559389  0.47124599  0.69992734     0.38200
H379        H  0.59128725  0.39577166  0.64669155     0.33600
H380        H  0.59115993  0.44440609  0.65150712     0.30300
H381        H  0.61726765  0.54853853  0.68971077     0.33700
H382        H  0.60597786  0.49602279  0.68266676     0.30300
H383        H  0.73120839  0.63116643  0.61083329     0.38200
H384        H  0.71467881  0.57719641  0.60383095     0.33700
C385        C  0.68928758  0.63168042  0.77151499    -0.20100
C386        C  0.69166691  0.59920151  0.78344949     0.36200
C387        C  0.69060909  0.56063767  0.77535212    -0.26000
C388        C  0.68795214  0.55434719  0.75545159     0.02600
C389        C  0.68763638  0.58808763  0.74341858     0.27400
C390        C  0.68750971  0.62597468  0.75161179    -0.25200
N391        N  0.69293823  0.60399521  0.80381355    -0.82500
H392        H  0.69038509  0.53469980  0.78470792     0.13200
C393        C  0.68269211  0.51099678  0.74747120     0.02600
N394        N  0.68717502  0.58354145  0.72296597    -0.81100
H395        H  0.68604495  0.65125049  0.74243287     0.18000
C396        C  0.64590212  0.48317372  0.73563899    -0.26000
C397        C  0.63941110  0.44213189  0.72765182     0.36100
C398        C  0.67121405  0.42909249  0.73123082    -0.20000
C399        C  0.70643489  0.45521342  0.74395238    -0.25200
C400        C  0.71282495  0.49639125  0.75199174     0.27400
H401        H  0.62158079  0.49314585  0.73278085     0.13200
N402        N  0.59955832  0.41404755  0.71661325    -0.82500
H403        H  0.73025810  0.44459219  0.74686489     0.18100
N404        N  0.75031063  0.52394574  0.76433152    -0.81100
H405        H  0.60205824  0.43249311  0.70411452     0.33700
H406        H  0.59603968  0.38250438  0.71260778     0.38200
H407        H  0.76901061  0.50813284  0.76629526     0.33600
H408        H  0.77125570  0.55578424  0.75742174     0.30300
H409        H  0.68663875  0.61107276  0.71620362     0.33700
H410        H  0.71716739  0.58617704  0.71896757     0.30300
H411        H  0.72176951  0.60542775  0.80881733     0.38200
H412        H  0.66520443  0.57414247  0.80959184     0.33700
C413        C  0.58147503  0.27299683  0.69119211    -0.20100
C414        C  0.58503316  0.24462858  0.67753390     0.36200
C415        C  0.54701246  0.21207422  0.66746754    -0.26000
C416        C  0.50555443  0.20793652  0.67055439     0.02600
C417        C  0.50249653  0.23852101  0.68339108     0.27400
C418        C  0.54054817  0.27057863  0.69360545    -0.25200
N419        N  0.62672821  0.24736103  0.67442873    -0.82500
H420        H  0.54955901  0.18883840  0.65760583     0.13200
C421        C  0.46586081  0.16894880  0.66131581     0.02600
N422        N  0.46197853  0.23884961  0.68608667    -0.81100
H423        H  0.53810921  0.29370505  0.70356079     0.18000
C424        C  0.43419848  0.13210792  0.67276905    -0.26000
C425        C  0.39835064  0.09211498  0.66451762     0.36100
C426        C  0.39413380  0.08924441  0.64439236    -0.20000
C427        C  0.42521547  0.12674733  0.63297091    -0.25200
C428        C  0.46140147  0.16650974  0.64126965     0.27400
H429        H  0.43813017  0.13424486  0.68818124     0.13200
N430        N  0.36634007  0.05440819  0.67647441    -0.82500
H431        H  0.42200830  0.12438234  0.61753815     0.18100
N432        N  0.49415070  0.20406469  0.62949263    -0.81100
H433        H  0.37449163  0.06198405  0.69092166     0.33700
H434        H  0.33534974  0.05141829  0.67452654     0.38200
H435        H  0.48631711  0.19667807  0.61501476     0.33600
H436        H  0.49248348  0.23352647  0.63247926     0.30300
H437        H  0.45119108  0.22830030  0.70015159     0.33700
H438        H  0.43644244  0.21541392  0.67707375     0.30300
H439        H  0.62214072  0.21459742  0.67726795     0.38200
H440        H  0.63526367  0.25527450  0.65998838     0.33700
C441        C  0.57916755  0.27397327  0.73470259    -0.20100
C442        C  0.56077832  0.22557948  0.73355526     0.36200
C443        C  0.52160774  0.19517749  0.74359598    -0.26000
C444        C  0.49968149  0.21188482  0.75470486     0.02600
C445        C  0.51896598  0.26044399  0.75660753     0.27400
C446        C  0.55894183  0.29113036  0.74668242    -0.25200
N447        N  0.58180723  0.20704114  0.72221428    -0.82500
H448        H  0.50778083  0.15798810  0.74248284     0.13200
C449        C  0.45634602  0.17711993  0.76375403     0.02600
N450        N  0.49744456  0.27829509  0.76817015    -0.81100
H451        H  0.57341638  0.32843291  0.74768578     0.18000
C452        C  0.45142048  0.17505259  0.78376259    -0.26000
C453        C  0.41454370  0.13637191  0.79275289     0.36100
C454        C  0.38227641  0.09954168  0.78139554    -0.20000
C455        C  0.38557530  0.10365311  0.76141342    -0.25200
C456        C  0.42194537  0.14210786  0.75247833     0.27400
H457        H  0.47776620  0.20205604  0.79240502     0.13200
N458        N  0.41120249  0.13320505  0.81326023    -0.82500
H459        H  0.36033233  0.07572466  0.75270395     0.18100
N460        N  0.42511017  0.14493358  0.73194666    -0.81100
H461        H  0.43751695  0.16331024  0.81944320     0.33700
H462        H  0.41498415  0.10563580  0.81757858     0.38200
H463        H  0.39750479  0.11599976  0.72574496     0.33600
H464        H  0.42389417  0.17409156  0.72770058     0.30300
H465        H  0.51604681  0.31472182  0.76809844     0.33700
H466        H  0.46667146  0.26825646  0.76183793     0.30300
H467        H  0.58978969  0.18742811  0.73118387     0.38200
H468        H  0.55857585  0.18446176  0.71216725     0.33700
C469        C  0.73220074  0.33759163  0.73746599    -0.20100
C470        C  0.71952876  0.30441214  0.75224874     0.36200
C471        C  0.75268497  0.30219534  0.76275895    -0.26000
C472        C  0.79833411  0.33358851  0.75898289     0.02600
C473        C  0.81070762  0.36817262  0.74468593     0.27400
C474        C  0.77768554  0.36972149  0.73410835    -0.25200
N475        N  0.67315897  0.27213289  0.75618966    -0.82500
H476        H  0.74285399  0.27579662  0.77379118     0.13200
C477        C  0.83303305  0.32994326  0.76972386     0.02600
N478        N  0.85658387  0.40259976  0.74079878    -0.81100
H479        H  0.78760460  0.39602431  0.72301560     0.18000
C480        C  0.85881503  0.31609873  0.75968559    -0.26000
C481        C  0.89615612  0.31804466  0.76813367     0.36100
C482        C  0.90698618  0.33246288  0.78728510    -0.20000
C483        C  0.87959457  0.34338394  0.79776432    -0.25200
C484        C  0.84322924  0.34322471  0.78915285     0.27400
H485        H  0.85060333  0.30527082  0.74493038     0.13200
N486        N  0.92352860  0.30607461  0.75727728    -0.82500
H487        H  0.88795522  0.35456644  0.81247839     0.18100
N488        N  0.81869471  0.35819977  0.80039536    -0.81100
H489        H  0.92098082  0.27659630  0.76367348     0.33700
H490        H  0.91134374  0.29671401  0.74333969     0.38200
H491        H  0.84080599  0.39297167  0.80407477     0.33600
H492        H  0.79301402  0.35767387  0.79263115     0.30300
H493        H  0.87305574  0.38603067  0.73613026     0.33700
H494        H  0.87146020  0.42008582  0.75350416     0.30300
H495        H  0.66705297  0.27612671  0.77046919     0.38200
H496        H  0.66693270  0.23839317  0.75457099     0.33700
C497        C  0.07054607  0.40715958  0.78475028    -0.20100
C498        C  0.07326666  0.41488031  0.76471170     0.36200
C499        C  0.11421808  0.44857016  0.75642878    -0.26000
C500        C  0.15248128  0.47461286  0.76764802     0.02600
C501        C  0.15054025  0.46568602  0.78743559     0.27400
C502        C  0.10963828  0.43188283  0.79579721    -0.25200
N503        N  0.03451718  0.38879919  0.75282470    -0.82500
H504        H  0.11608158  0.45557698  0.74118755     0.13200
C505        C  0.19295844  0.51392207  0.75861531     0.02600
N506        N  0.18993233  0.49168866  0.79896012    -0.81100
H507        H  0.10799863  0.42599206  0.81110934     0.18000
C508        C  0.20465128  0.55951502  0.76298198    -0.26000
C509        C  0.23830501  0.59767252  0.75269423     0.36100
C510        C  0.26131484  0.59032179  0.73799393    -0.20000
C511        C  0.25151678  0.54483040  0.73447159    -0.25200
C512        C  0.21709598  0.50643230  0.74447251     0.27400
H513        H  0.18596544  0.56532376  0.77378989     0.13200
N514        N  0.24720874  0.64347669  0.75653887    -0.82500
H515        H  0.26995356  0.53917707  0.72350488     0.18100
N516        N  0.20582028  0.45987440  0.74007103    -0.81100
H517        H  0.21754145  0.64334506  0.75463267     0.33700
H518        H  0.25663150  0.65096821  0.77087630     0.38200
H519        H  0.22640043  0.46033827  0.72914142     0.33600
H520        H  0.21253550  0.44626251  0.75222531     0.30300
H521        H  0.18289695  0.48120147  0.81328659     0.33700
H522        H  0.21337513  0.48346078  0.79436914     0.30300
H523        H  0.02560386  0.35392535  0.75340457     0.38200
H524        H  0.04210234  0.39936091  0.73852423     0.33700
C525        C  0.89992883  0.28795237  0.66048849    -0.20100
C526        C  0.86210011  0.27215413  0.64854317     0.36200
C527        C  0.82640819  0.27690956  0.65471671    -0.26000
C528        C  0.82785111  0.29645896  0.67254062     0.02600
C529        C  0.86411332  0.30941495  0.68489207     0.27400
C530        C  0.89948372  0.30458449  0.67883495    -0.25200
N531        N  0.86080291  0.25349434  0.62995982    -0.82500
H532        H  0.79779184  0.26621882  0.64550593     0.13200
C533        C  0.79150226  0.30362362  0.67843781     0.02600
N534        N  0.86523854  0.32840028  0.70339783    -0.81100
H535        H  0.92786986  0.31582274  0.68825311     0.18000
C536        C  0.75760359  0.27023989  0.69024438    -0.26000
C537        C  0.72590214  0.27827230  0.69844209     0.36100
C538        C  0.72882032  0.32139424  0.69500963    -0.20000
C539        C  0.76140652  0.35380520  0.68235658    -0.25200
C540        C  0.79311499  0.34544290  0.67408998     0.27400
H541        H  0.75629274  0.23795406  0.69340153     0.13200
N542        N  0.69101008  0.24154925  0.70979969    -0.82500
H543        H  0.76317753  0.38645955  0.67956119     0.18100
N544        N  0.82743020  0.37948322  0.66163984    -0.81100
H545        H  0.70575456  0.23713149  0.72199358     0.33700
H546        H  0.66774530  0.24985092  0.71435087     0.38200
H547        H  0.82359865  0.40806922  0.65975037     0.33600
H548        H  0.85821965  0.39199092  0.66841845     0.30300
H549        H  0.89399917  0.33554646  0.71087420     0.33700
H550        H  0.86755510  0.36036914  0.70124654     0.30300
H551        H  0.85883079  0.22166518  0.63203190     0.38200
H552        H  0.83163561  0.24586788  0.62271268     0.33700
C553        C  0.06225241  0.38297662  0.66101425    -0.20100
C554        C  0.06605357  0.39758023  0.68014883     0.36200
C555        C  0.10352930  0.43978908  0.68579364    -0.26000
C556        C  0.13670879  0.46868173  0.67251883     0.02600
C557        C  0.13254213  0.45462799  0.65326537     0.27400
C558        C  0.09588217  0.41132766  0.64781539    -0.25200
N559        N  0.03215580  0.36945407  0.69394519    -0.82500
H560        H  0.10677546  0.44994784  0.70066902     0.13200
C561        C  0.17651771  0.51237852  0.67923949     0.02600
N562        N  0.16492821  0.48492274  0.63926298    -0.81100
H563        H  0.09250121  0.40067728  0.63301084     0.18000
C564        C  0.21924050  0.52021643  0.67543452    -0.26000
C565        C  0.25747470  0.55873294  0.68293356     0.36100
C566        C  0.25302276  0.58933721  0.69509930    -0.20000
C567        C  0.21060591  0.58280714  0.69824579    -0.25200
C568        C  0.17225697  0.54492677  0.69021624     0.27400
H569        H  0.22286408  0.49539337  0.66705960     0.13200
N570        N  0.29999253  0.56448059  0.67867565    -0.82500
H571        H  0.20746286  0.60707299  0.70723451     0.18100
N572        N  0.12907969  0.53922564  0.69321090    -0.81100
H573        H  0.31442184  0.56306602  0.69150283     0.33700
H574        H  0.32038086  0.59708711  0.67227250     0.38200
H575        H  0.13186586  0.56616869  0.70163835     0.33600
H576        H  0.11721241  0.54220596  0.67987255     0.30300
H577        H  0.15694508  0.46946134  0.62576916     0.33700
H578        H  0.16292747  0.51480424  0.63820851     0.30300
H579        H  0.01962515  0.38919884  0.69950860     0.38200
H580        H  0.04711027  0.36167760  0.70512975     0.33700
C581        C  0.88727763  0.89995922  0.89082171    -0.20100
C582        C  0.90373888  0.90905428  0.87179551     0.36200
C583        C  0.87430345  0.88454222  0.85661258    -0.26000
C584        C  0.82909417  0.85131642  0.86010105     0.02600
C585        C  0.81243870  0.84306908  0.87890410     0.27400
C586        C  0.84160952  0.86710496  0.89402873    -0.25200
N587        N  0.95016005  0.94225367  0.86794394    -0.82500
H588        H  0.88679814  0.89047518  0.84205662     0.13200
C589        C  0.79977534  0.82253506  0.84428033     0.02600
N590        N  0.76586062  0.80997002  0.88252999    -0.81100
H591        H  0.82827264  0.86035499  0.90844723     0.18000
C592        C  0.78949875  0.77653697  0.84281181    -0.26000
C593        C  0.75994371  0.74675941  0.82881986     0.36100
C594        C  0.73989104  0.76306739  0.81591890    -0.20000
C595        C  0.75020126  0.80935336  0.81749364    -0.25200
C596        C  0.78000943  0.83927230  0.83157481     0.27400
H597        H  0.80422504  0.76347499  0.85277587     0.13200
N598        N  0.74971331  0.69965008  0.82812741    -0.82500
H599        H  0.73526554  0.82236670  0.80763949     0.18100
N600        N  0.79014406  0.88638539  0.83310121    -0.81100
H601        H  0.77958938  0.70032275  0.82601880     0.33700
H602        H  0.73647806  0.68387089  0.84138448     0.38200
H603        H  0.77311586  0.89339110  0.82259849     0.33600
H604        H  0.77795476  0.88946826  0.84629952     0.30300
H605        H  0.75891242  0.80760247  0.89717652     0.33700
H606        H  0.74744545  0.82274209  0.87601872     0.30300
H607        H  0.96883638  0.92924348  0.87398717     0.38200
H608        H  0.95649381  0.94519833  0.85322962     0.33700
C609        C  0.10944718  0.98006420  0.90050407    -0.20100
C610        C  0.14389864  0.97088635  0.90454263     0.36200
C611        C  0.17298054  0.97487385  0.88979611    -0.26000
C612        C  0.16743923  0.98596974  0.87107690     0.02600
C613        C  0.13160094  0.99207697  0.86671966     0.27400
C614        C  0.10320751  0.98936533  0.88145068    -0.25200
N615        N  0.14993520  0.95833313  0.92352002    -0.82500
H616        H  0.20005668  0.96908663  0.89285287     0.13200
C617        C  0.19926727  0.99093907  0.85603946     0.02600
N618        N  0.12458458  0.00161557  0.84736706    -0.81100
H619        H  0.07643641  0.99533288  0.87799363     0.18000
C620        C  0.18399804  0.95841269  0.84126234    -0.26000
C621        C  0.21241662  0.96287071  0.82620950     0.36100
C622        C  0.25723731  0.00095549  0.82596176    -0.20000
C623        C  0.27248818  0.03339916  0.84088738    -0.25200
C624        C  0.24397345  0.02853723  0.85603776     0.27400
H625        H  0.14955165  0.92962414  0.84143064     0.13200
N626        N  0.19559573  0.92925251  0.81105680    -0.82500
H627        H  0.30688570  0.06225978  0.84085474     0.18100
N628        N  0.26010070  0.06154483  0.87140133    -0.81100
H629        H  0.16235327  0.90306567  0.81366058     0.33700
H630        H  0.19561040  0.94640390  0.79852415     0.38200
H631        H  0.29388468  0.08683876  0.86936127     0.33600
H632        H  0.24257940  0.07890904  0.87094844     0.30300
H633        H  0.09639330  0.00462631  0.84650982     0.33700
H634        H  0.15206146  0.03399809  0.84339834     0.30300
H635        H  0.12248201  0.92510460  0.92649472     0.38200
H636        H  0.17810944  0.95524494  0.92411146     0.33700
C637        C  0.98546614  0.29807283  0.83765480    -0.20100
C638        C  0.94898918  0.27770280  0.85065579     0.36200
C639        C  0.94745524  0.24782028  0.86527152    -0.26000
C640        C  0.98145978  0.23785177  0.86721609     0.02600
C641        C  0.01905214  0.26019696  0.85502671     0.27400
C642        C  0.02075974  0.29012895  0.84047574    -0.25200
N643        N  0.91329597  0.28671708  0.84885553    -0.82500
H644        H  0.91879614  0.23085413  0.87477774     0.13200
C645        C  0.97563903  0.20096683  0.88087506     0.02600
N646        N  0.05482496  0.25137254  0.85718883    -0.81100
H647        H  0.04914103  0.30581317  0.83081154     0.18000
C648        C  0.97425122  0.16148703  0.87362374    -0.26000
C649        C  0.96994805  0.12598678  0.88579816     0.36100
C650        C  0.96706662  0.13004738  0.90580262    -0.20000
C651        C  0.96626592  0.16858773  0.91298110    -0.25200
C652        C  0.97116501  0.20441403  0.90074247     0.27400
H653        H  0.97673212  0.15850529  0.85830991     0.13200
N654        N  0.96863150  0.08595018  0.87788211    -0.82500
H655        H  0.96405854  0.17197731  0.92828049     0.18100
N656        N  0.97317277  0.24494786  0.90844993    -0.81100
H657        H  0.97180649  0.08874026  0.86298822     0.33700
H658        H  0.93703610  0.05686352  0.88084030     0.38200
H659        H  0.96927925  0.24204228  0.92331856     0.33600
H660        H  0.00528252  0.27347030  0.90575831     0.30300
H661        H  0.07982672  0.27004676  0.84697280     0.33700
H662        H  0.06940569  0.26395009  0.87056522     0.30300
H663        H  0.92673136  0.32213274  0.85148802     0.38200
H664        H  0.88882576  0.26846079  0.85932022     0.33700
C665        C  0.85214531  0.87842012  0.52022073    -0.20100
C666        C  0.86393743  0.85661490  0.53448453     0.36200
C667        C  0.83109024  0.82450393  0.54715419    -0.26000
C668        C  0.78646497  0.81246236  0.54560236     0.02600
C669        C  0.77405391  0.83236956  0.53090682     0.27400
C670        C  0.80705267  0.86538584  0.51842751    -0.25200
N671        N  0.90902402  0.86654386  0.53594656    -0.82500
H672        H  0.84037258  0.80890827  0.55844046     0.13200
C673        C  0.75381860  0.78063732  0.56014290     0.02600
N674        N  0.72803312  0.81894599  0.52876493    -0.81100
H675        H  0.79756908  0.88140273  0.50741142     0.18000
C676        C  0.73342637  0.79737142  0.57215672    -0.26000
C677        C  0.70613025  0.77041015  0.58751224     0.36100
C678        C  0.69851891  0.72518360  0.59074680    -0.20000
C679        C  0.71827656  0.70819332  0.57834571    -0.25200
C680        C  0.74571080  0.73538943  0.56306343     0.27400
H681        H  0.74032546  0.83245061  0.56997479     0.13200
N682        N  0.68762001  0.78964852  0.60015035    -0.82500
H683        H  0.71235963  0.67351780  0.58057028     0.18100
N684        N  0.76562172  0.71743938  0.55053839    -0.81100
H685        H  0.69567376  0.82273631  0.59547188     0.33700
H686        H  0.70289842  0.79421599  0.61348306     0.38200
H687        H  0.75650804  0.68366528  0.55465955     0.33600
H688        H  0.75240279  0.71495881  0.53687406     0.30300
H689        H  0.72443827  0.83681113  0.51728235     0.33700
H690        H  0.70983128  0.78358767  0.52527879     0.30300
H691        H  0.91600569  0.85451250  0.52347036     0.38200
H692        H  0.91208554  0.84803104  0.54731472     0.33700
C693        C  0.99933546  0.12317554  0.53785703    -0.20100
C694        C  0.99077120  0.10326724  0.55649144     0.36200
C695        C  0.98640899  0.12732012  0.57190045    -0.26000
C696        C  0.99172672  0.17125936  0.56928960     0.02600
C697        C  0.00125928  0.19168928  0.55091957     0.27400
C698        C  0.00496221  0.16757979  0.53547926    -0.25200
N699        N  0.98676495  0.05904307  0.55985902    -0.82500
H700        H  0.97996615  0.11228754  0.58615670     0.13200
C701        C  0.98981652  0.19693315  0.58603516     0.02600
N702        N  0.00697711  0.23687299  0.54802155    -0.81100
H703        H  0.01200281  0.18375078  0.52144181     0.18000
C704        C  0.02735889  0.24050717  0.59021612    -0.26000
C705        C  0.02682907  0.26739931  0.60525293     0.36100
C706        C  0.98809537  0.25017604  0.61678600    -0.20000
C707        C  0.95071085  0.20585569  0.61280593    -0.25200
C708        C  0.95111042  0.17914034  0.59749214     0.27400
H709        H  0.05728118  0.25414153  0.58151625     0.13200
N710        N  0.06544581  0.31271838  0.60829435    -0.82500
H711        H  0.92089314  0.19206128  0.62156232     0.18100
N712        N  0.91226434  0.13443382  0.59336730    -0.81100
H713        H  0.07170124  0.33232144  0.59574964     0.33700
H714        H  0.09282730  0.30893635  0.61079101     0.38200
H715        H  0.88671026  0.12631180  0.60320903     0.33600
H716        H  0.90031842  0.13682547  0.57995755     0.30300
H717        H  0.01440499  0.24732081  0.53370481     0.33700
H718        H  0.97639768  0.23397737  0.55103484     0.30300
H719        H  0.01844814  0.06380493  0.55776757     0.38200
H720        H  0.97827962  0.04857264  0.57412197     0.33700
C721        C  0.14181049  0.04106602  0.52629788    -0.20100
C722        C  0.13770205  0.04824013  0.54584320     0.36200
C723        C  0.16485184  0.04323750  0.55922472    -0.26000
C724        C  0.19640472  0.03201640  0.55336674     0.02600
C725        C  0.20158714  0.02649532  0.53375823     0.27400
C726        C  0.17415585  0.03103430  0.52040215    -0.25200
N727        N  0.10621545  0.06079134  0.55196560    -0.82500
H728        H  0.16131256  0.04786545  0.57430785     0.13200
C729        C  0.22423508  0.02679513  0.56793643     0.02600
N730        N  0.23459314  0.01620789  0.52753616    -0.81100
H731        H  0.17724770  0.02554149  0.50536487     0.18000
C732        C  0.22275818  0.98444740  0.56960673    -0.26000
C733        C  0.24882254  0.97836423  0.58327956     0.36100
C734        C  0.27598238  0.01513892  0.59594069    -0.20000
C735        C  0.27752338  0.05765213  0.59398863    -0.25200
C736        C  0.25231904  0.06395586  0.58004802     0.27400
H737        H  0.20126853  0.95610150  0.56012076     0.13200
N738        N  0.24820602  0.93535403  0.58407544    -0.82500
H739        H  0.29823410  0.08624253  0.60349173     0.18100
N740        N  0.25523574  0.10804123  0.57806142    -0.81100
H741        H  0.22602682  0.91187136  0.57396446     0.33700
H742        H  0.28008749  0.94278702  0.58015942     0.38200
H743        H  0.27734665  0.13179751  0.58811212     0.33600
H744        H  0.26889183  0.12166710  0.56458105     0.30300
H745        H  0.23385707  0.01285523  0.51266061     0.33700
H746        H  0.26606198  0.04477166  0.53095205     0.30300
H747        H  0.11613704  0.09334878  0.54595602     0.38200
H748        H  0.10745375  0.06489633  0.56680712     0.33700
C749        C  0.30179673  0.29779512  0.33600049    -0.20100
C750        C  0.27615990  0.30767645  0.34851327     0.36200
C751        C  0.24969942  0.27489873  0.36267317    -0.26000
C752        C  0.24879518  0.23293235  0.36473145     0.02600
C753        C  0.27517530  0.22351629  0.35266915     0.27400
C754        C  0.30140573  0.25600177  0.33847018    -0.25200
N755        N  0.27724777  0.35087028  0.34697038    -0.82500
H756        H  0.22928604  0.28183157  0.37206470     0.13200
C757        C  0.21869231  0.19833982  0.37911865     0.02600
N758        N  0.27487453  0.18080293  0.35481317    -0.81100
H759        H  0.32108659  0.24810408  0.32906530     0.18000
C760        C  0.18412262  0.15468958  0.37291868    -0.26000
C761        C  0.15330746  0.12169943  0.38594827     0.36100
C762        C  0.15689286  0.13299908  0.40554947    -0.20000
C763        C  0.19249852  0.17613965  0.41180994    -0.25200
C764        C  0.22352851  0.20896341  0.39875455     0.27400
H765        H  0.18082942  0.14667508  0.35779728     0.13200
N766        N  0.11837522  0.07688681  0.37935731    -0.82500
H767        H  0.19531425  0.18485608  0.42684559     0.18100
N768        N  0.25964385  0.25318801  0.40527425    -0.81100
H769        H  0.12030183  0.07432311  0.36453428     0.33700
H770        H  0.12378275  0.05178263  0.38547254     0.38200
H771        H  0.25825656  0.25568106  0.42012795     0.33600
H772        H  0.28955452  0.25461426  0.40224419     0.30300
H773        H  0.29592533  0.17903904  0.34471841     0.33700
H774        H  0.28813188  0.18118115  0.36826789     0.30300
H775        H  0.30964203  0.37769045  0.35039005     0.38200
H776        H  0.25589881  0.35215963  0.35704731     0.33700
C777        C  0.73200035  0.02183429  0.33305151    -0.20100
C778        C  0.71326707  0.98317821  0.34571730     0.36200
C779        C  0.74010472  0.98058833  0.36001502    -0.26000
C780        C  0.78488624  0.01613670  0.36214255     0.02600
C781        C  0.80316731  0.05574579  0.35015233     0.27400
C782        C  0.77653823  0.05820812  0.33569248    -0.25200
N783        N  0.66697485  0.94703453  0.34422289    -0.82500
H784        H  0.72624467  0.95046139  0.36943530     0.13200
C785        C  0.81286246  0.01026149  0.37636837     0.02600
N786        N  0.84878560  0.09298680  0.35263724    -0.81100
H787        H  0.79090544  0.08821231  0.32619900     0.18000
C788        C  0.84745856  0.00454432  0.36983380    -0.26000
C789        C  0.87431826  0.99770977  0.38270216     0.36100
C790        C  0.86710920  0.99790569  0.40258232    -0.20000
C791        C  0.83173401  0.00268374  0.40907994    -0.25200
C792        C  0.80444000  0.00877857  0.39613467     0.27400
H793        H  0.85300509  0.00470839  0.35457744     0.13200
N794        N  0.90836425  0.98985494  0.37564332    -0.82500
H795        H  0.82606814  0.00286805  0.42430672     0.18100
N796        N  0.76854910  0.01393028  0.40293027    -0.81100
H797        H  0.90934338  0.99094028  0.36069225     0.33700
H798        H  0.89936307  0.95604739  0.37966451     0.38200
H799        H  0.76667322  0.01180007  0.41786352     0.33600
H800        H  0.77612461  0.04743410  0.39919662     0.30300
H801        H  0.85719987  0.11953955  0.34260974     0.33700
H802        H  0.85120254  0.10740804  0.36611296     0.30300
H803        H  0.64788555  0.96186377  0.34732551     0.38200
H804        H  0.65864001  0.92105970  0.35452890     0.33700
C805        C  0.02522498  0.77605911  0.31409955    -0.20100
C806        C  0.06247614  0.80089983  0.32643025     0.36200
C807        C  0.06199377  0.83088793  0.34016491    -0.26000
C808        C  0.02475434  0.83549829  0.34235695     0.02600
C809        C  0.98805589  0.81168201  0.32992463     0.27400
C810        C  0.98894058  0.78277498  0.31576019    -0.25200
N811        N  0.09985586  0.79433962  0.32562292    -0.82500
H812        H  0.09005261  0.84932243  0.34982533     0.13200
C813        C  0.02299791  0.86196183  0.35883768     0.02600
N814        N  0.94941920  0.81571114  0.33216920    -0.81100
H815        H  0.96047173  0.76437050  0.30631629     0.18000
C816        C  0.01887185  0.90074517  0.35574329    -0.26000
C817        C  0.01574411  0.92562452  0.37116573     0.36100
C818        C  0.01677468  0.91118314  0.39020631    -0.20000
C819        C  0.02123829  0.87225924  0.39305227    -0.25200
C820        C  0.02401430  0.84745302  0.37765676     0.27400
H821        H  0.01811315  0.91161109  0.34118753     0.13200
N822        N  0.01100338  0.96489542  0.36741073    -0.82500
H823        H  0.02189641  0.86035350  0.40741262     0.18100
N824        N  0.02709315  0.80698126  0.38104796    -0.81100
H825        H  0.00843628  0.96905574  0.35271778     0.33700
H826        H  0.04048411  0.99469224  0.37183330     0.38200
H827        H  0.02762974  0.80097596  0.39571381     0.33600
H828        H  0.99803441  0.77813651  0.37565970     0.30300
H829        H  0.92531273  0.79603538  0.32185462     0.33700
H830        H  0.93502913  0.80119463  0.34545697     0.30300
H831        H  0.08852504  0.76030116  0.33022964     0.38200
H832        H  0.12479794  0.81631935  0.33523707     0.33700
C833        C  0.73710007  0.03074037  0.09592585    -0.20100
C834        C  0.76117080  0.07002165  0.08372749     0.36200
C835        C  0.79219441  0.07122477  0.07065313    -0.26000
C836        C  0.79919605  0.03400148  0.06943763     0.02600
C837        C  0.77567141  0.99511192  0.08158848     0.27400
C838        C  0.74487238  0.99385892  0.09470914    -0.25200
N839        N  0.75331522  0.10786355  0.08422939    -0.82500
H840        H  0.81044418  0.10086577  0.06110850     0.13200
C841        C  0.82970132  0.03499661  0.05471742     0.02600
N842        N  0.78303878  0.95696821  0.08044430    -0.81100
H843        H  0.72691063  0.96385059  0.10408236     0.18000
C844        C  0.87179935  0.04360206  0.06013025    -0.26000
C845        C  0.90106729  0.04329723  0.04653066     0.36100
C846        C  0.88757695  0.03382688  0.02720366    -0.20000
C847        C  0.84544964  0.02571833  0.02184239    -0.25200
C848        C  0.81615692  0.02576614  0.03548716     0.27400
H849        H  0.88175840  0.05062503  0.07500186     0.13200
N850        N  0.94458335  0.05321103  0.05221727    -0.82500
H851        H  0.83488808  0.01808082  0.00705786     0.18100
N852        N  0.77245860  0.01581859  0.03001478    -0.81100
H853        H  0.94903003  0.05912428  0.06693945     0.33700
H854        H  0.96821620  0.08433198  0.04547628     0.38200
H855        H  0.76767055  0.00980530  0.01530790     0.33600
H856        H  0.74889624  0.98474814  0.03681015     0.30300
H857        H  0.76341386  0.93120248  0.09054137     0.33700
H858        H  0.77217063  0.94178046  0.06699316     0.30300
H859        H  0.72066876  0.09507798  0.07943409     0.38200
H860        H  0.77450248  0.13429299  0.07465649     0.33700
C861        C  0.02726894  0.74478902  0.09676928    -0.20100
C862        C  0.99569577  0.73339694  0.08199693     0.36200
C863        C  0.00337080  0.76718730  0.06808432    -0.26000
C864        C  0.04198624  0.81182762  0.06855736     0.02600
C865        C  0.07322505  0.82343808  0.08339741     0.27400
C866        C  0.06554749  0.78981145  0.09734904    -0.25200
N867        N  0.95664328  0.68739513  0.08085779    -0.82500
H868        H  0.97927386  0.75867975  0.05672158     0.13200
C869        C  0.04856115  0.84637717  0.05364201     0.02600
N870        N  0.11279941  0.86916163  0.08409695    -0.81100
H871        H  0.08971873  0.79875807  0.10871563     0.18000
C872        C  0.04889122  0.88651875  0.05902862    -0.26000
C873        C  0.05085128  0.91807102  0.04526025     0.36100
C874        C  0.05190390  0.90887614  0.02556380    -0.20000
C875        C  0.05446978  0.87009019  0.02028017    -0.25200
C876        C  0.05270429  0.83866275  0.03416402     0.27400
H877        H  0.04627911  0.89251358  0.07405207     0.13200
N878        N  0.05071782  0.95884151  0.05122598    -0.82500
H879        H  0.05563128  0.86297749  0.00527007     0.18100
N880        N  0.05402382  0.79835102  0.02859490    -0.81100
H881        H  0.04913097  0.95997837  0.06613058     0.33700
H882        H  0.08121920  0.98800004  0.04703642     0.38200
H883        H  0.05691171  0.79756186  0.01373821     0.33600
H884        H  0.08302483  0.80158188  0.03440915     0.30300
H885        H  0.13228051  0.87217384  0.09597951     0.33700
H886        H  0.13202176  0.87317525  0.07199100     0.30300
H887        H  0.93669731  0.68498989  0.06925157     0.38200
H888        H  0.96744743  0.66427897  0.07815867     0.33700
C889        C  0.27300214  0.69210167  0.19257949    -0.20100
C890        C  0.28388864  0.71963889  0.17588709     0.36200
C891        C  0.24969574  0.71738838  0.16462161    -0.26000
C892        C  0.20465722  0.68821176  0.16983159     0.02600
C893        C  0.19361018  0.66038044  0.18651266     0.27400
C894        C  0.22792892  0.66222873  0.19759462    -0.25200
N895        N  0.32966811  0.75076013  0.17057916    -0.82500
H896        H  0.25834257  0.73866835  0.15178807     0.13200
C897        C  0.16923452  0.68739960  0.15792382     0.02600
N898        N  0.14762349  0.63069582  0.19219294    -0.81100
H899        H  0.21949368  0.64025527  0.21019702     0.18000
C900        C  0.13555744  0.64494325  0.15027810    -0.26000
C901        C  0.09900722  0.64177304  0.14054418     0.36100
C902        C  0.09639558  0.68196203  0.13836718    -0.20000
C903        C  0.13142300  0.72497069  0.14492851    -0.25200
C904        C  0.16768687  0.72805828  0.15490629     0.27400
H905        H  0.13746426  0.61404539  0.15224767     0.13200
N906        N  0.06449812  0.59800274  0.13291516    -0.82500
H907        H  0.12930610  0.75578928  0.14313244     0.18100
N908        N  0.20205558  0.77189334  0.16255633    -0.81100
H909        H  0.07139507  0.57184493  0.13582804     0.33700
H910        H  0.06510606  0.60161048  0.11802963     0.38200
H911        H  0.19595383  0.79833344  0.15901489     0.33600
H912        H  0.20042993  0.76890269  0.17747250     0.30300
H913        H  0.14524525  0.61233358  0.20471282     0.33700
H914        H  0.13515338  0.65209562  0.19548721     0.30300
H915        H  0.33451899  0.74177360  0.15689945     0.38200
H916        H  0.33543595  0.78451248  0.16988530     0.33700
C917        C  0.09782412  0.70891382  0.27673494    -0.20100
C918        C  0.09541436  0.67048715  0.26726626     0.36200
C919        C  0.13482419  0.67380852  0.26088280    -0.26000
C920        C  0.17678413  0.71342484  0.26438515     0.02600
C921        C  0.17970675  0.75106953  0.27439966     0.27400
C922        C  0.14018697  0.74857440  0.28036574    -0.25200
N923        N  0.05327395  0.62799520  0.26422420    -0.82500
H924        H  0.13286829  0.64507254  0.25308125     0.13200
C925        C  0.21667707  0.71448299  0.25673944     0.02600
N926        N  0.22266654  0.79153963  0.27845022    -0.81100
H927        H  0.14263043  0.77798779  0.28776242     0.18000
C928        C  0.24322043  0.74794678  0.24287092    -0.26000
C929        C  0.27544604  0.74411844  0.23256192     0.36100
C930        C  0.28092169  0.70610864  0.23608035    -0.20000
C931        C  0.25681001  0.67470914  0.25091431    -0.25200
C932        C  0.22463794  0.67849726  0.26130719     0.27400
H933        H  0.23748682  0.77586085  0.23940628     0.13200
N934        N  0.30224835  0.77855391  0.21843178    -0.82500
H935        H  0.26181284  0.64606959  0.25385537     0.18100
N936        N  0.19884820  0.64510684  0.27604729    -0.81100
H937        H  0.31967535  0.81092493  0.22515618     0.33700
H938        H  0.28079510  0.77978107  0.20835175     0.38200
H939        H  0.20843072  0.62055906  0.27750169     0.33600
H940        H  0.20637703  0.66302911  0.28899057     0.30300
H941        H  0.21895195  0.81621148  0.28586246     0.33700
H942        H  0.23951384  0.78113765  0.28762411     0.30300
H943        H  0.04093089  0.61268027  0.27763850     0.38200
H944        H  0.05757058  0.60416278  0.25644824     0.33700
C945        C  0.42376992  0.75854278  0.19001344    -0.20100
C946        C  0.43734766  0.80594462  0.18996929     0.36200
C947        C  0.47082386  0.83683656  0.17732281    -0.26000
C948        C  0.49035415  0.82115338  0.16422931     0.02600
C949        C  0.47566055  0.77331393  0.16373000     0.27400
C950        C  0.44239061  0.74238037  0.17668993    -0.25200
N951        N  0.41641834  0.82266188  0.20242162    -0.82500
H952        H  0.48177512  0.87347386  0.17778195     0.13200
C953        C  0.52691202  0.85610227  0.15169824     0.02600
N954        N  0.49430860  0.75642158  0.15002818    -0.81100
H955        H  0.43106889  0.70563282  0.17649481     0.18000
C956        C  0.56977387  0.86239631  0.15296860    -0.26000
C957        C  0.60694219  0.90099064  0.14419186     0.36100
C958        C  0.60085815  0.93390361  0.13426870    -0.20000
C959        C  0.55772321  0.92599522  0.13199389    -0.25200
C960        C  0.52055662  0.88702994  0.14035290     0.27400
H961        H  0.57461523  0.83863216  0.16169210     0.13200
N962        N  0.65106338  0.90862520  0.14646799    -0.82500
H963        H  0.55328005  0.95122085  0.12416256     0.18100
N964        N  0.47649854  0.87949834  0.13794511    -0.81100
H965        H  0.64988704  0.88198026  0.15473619     0.33700
H966        H  0.66244878  0.90647686  0.13292579     0.38200
H967        H  0.47763422  0.90566786  0.12935355     0.33600
H968        H  0.45740774  0.84823399  0.13056012     0.30300
H969        H  0.47985554  0.72041969  0.15155549     0.33700
H970        H  0.48562137  0.76209353  0.13640312     0.30300
H971        H  0.40201913  0.83717304  0.19398149     0.38200
H972        H  0.44134102  0.84927123  0.21075009     0.33700
C973        C  0.61786415  0.94677424  0.28181454    -0.20100
C974        C  0.59719156  0.90063610  0.28906309     0.36200
C975        C  0.56269806  0.86389390  0.27851370    -0.26000
C976        C  0.54867221  0.87230100  0.26098775     0.02600
C977        C  0.57088379  0.91747735  0.25315509     0.27400
C978        C  0.60506050  0.95418826  0.26363611    -0.25200
N979        N  0.60992269  0.89119335  0.30728237    -0.82500
H980        H  0.54549796  0.82875229  0.28428549     0.13200
C981        C  0.50853440  0.83425356  0.25160556     0.02600
N982        N  0.55790528  0.92596759  0.23476809    -0.81100
H983        H  0.62137716  0.98900742  0.25758207     0.18000
C984        C  0.46728353  0.83059985  0.25465724    -0.26000
C985        C  0.42839583  0.79556271  0.24579290     0.36100
C986        C  0.43092735  0.76424005  0.23341805    -0.20000
C987        C  0.47213114  0.76752483  0.23053990    -0.25200
C988        C  0.51111233  0.80233092  0.23959174     0.27400
H989        H  0.46537851  0.85528192  0.26387451     0.13200
N990        N  0.38671364  0.79293552  0.24881495    -0.82500
H991        H  0.47379872  0.74295801  0.22116558     0.18100
N992        N  0.55319055  0.80543615  0.23669571    -0.81100
H993        H  0.39059529  0.82474813  0.24464691     0.33700
H994        H  0.37961898  0.78838534  0.26346442     0.38200
H995        H  0.54920567  0.77895548  0.22762798     0.33600
H996        H  0.57453142  0.83693257  0.22963341     0.30300
H997        H  0.57734024  0.96129045  0.23110235     0.33700
H998        H  0.56493241  0.90803254  0.22458524     0.30300
H999        H  0.59924479  0.90533322  0.31773692     0.38200
H1000       H  0.59295363  0.85532875  0.30997460     0.33700
C1001       C  0.33198036  0.60662222  0.23916378    -0.20100
C1002       C  0.36421815  0.61435810  0.25306107     0.36200
C1003       C  0.36016284  0.57661666  0.26351853    -0.26000
C1004       C  0.32407551  0.53121138  0.26048658     0.02600
C1005       C  0.29031534  0.52378392  0.24739832     0.27400
C1006       C  0.29452068  0.56147952  0.23688865    -0.25200
N1007       N  0.40240156  0.66006480  0.25585268    -0.82500
H1008       H  0.38628473  0.58248426  0.27350085     0.13200
C1009       C  0.32573333  0.49190626  0.26916538     0.02600
N1010       N  0.25237144  0.47818604  0.24407170    -0.81100
H1011       H  0.26902934  0.55531619  0.22650613     0.18000
C1012       C  0.29915969  0.46786192  0.28509191    -0.26000
C1013       C  0.30287981  0.43250962  0.29427317     0.36100
C1014       C  0.33459087  0.42177486  0.28747294    -0.20000
C1015       C  0.35977120  0.44520359  0.27099002    -0.25200
C1016       C  0.35565703  0.47989754  0.26183332     0.27400
H1017       H  0.27593020  0.47720103  0.29050759     0.13200
N1018       N  0.27523147  0.40848470  0.31057610    -0.82500
H1019       H  0.38350651  0.43703693  0.26519549     0.18100
N1020       N  0.38251209  0.50384896  0.24528693    -0.81100
H1021       H  0.25555091  0.42231084  0.31421097     0.33700
H1022       H  0.25296018  0.37403540  0.30652076     0.38200
H1023       H  0.40350276  0.49148149  0.24183734     0.33600
H1024       H  0.36088255  0.49603593  0.23369295     0.30300
H1025       H  0.23528350  0.46509291  0.25702166     0.33700
H1026       H  0.26381037  0.45662568  0.23956896     0.30300
H1027       H  0.43117790  0.65896815  0.25315412     0.38200
H1028       H  0.40291796  0.66890355  0.27019766     0.33700
C1029       C  0.75082097  0.43859232  0.23204160    -0.20100
C1030       C  0.79507736  0.44965308  0.22925777     0.36200
C1031       C  0.83004397  0.48772147  0.23880490    -0.26000
C1032       C  0.82128039  0.51421570  0.25145553     0.02600
C1033       C  0.77677040  0.50177385  0.25498203     0.27400
C1034       C  0.74182617  0.46399813  0.24514814    -0.25200
N1035       N  0.80444453  0.42186537  0.21697643    -0.82500
H1036       H  0.86420651  0.49683705  0.23625654     0.13200
C1037       C  0.85921201  0.55513006  0.26073993     0.02600
N1038       N  0.76740213  0.52751121  0.26854189    -0.81100
H1039       H  0.70754325  0.45471658  0.24746674     0.18000
C1040       C  0.86723343  0.59976352  0.25665776    -0.26000
C1041       C  0.90520833  0.63977055  0.26374427     0.36100
C1042       C  0.93526830  0.63460264  0.27554077    -0.20000
C1043       C  0.92635058  0.58982558  0.28005035    -0.25200
C1044       C  0.88857912  0.54999741  0.27279825     0.27400
H1045       H  0.84470139  0.60359429  0.24725284     0.13200
N1046       N  0.91281836  0.68448985  0.25798585    -0.82500
H1047       H  0.94958137  0.58602570  0.28899928     0.18100
N1048       N  0.88019627  0.50437418  0.27736559    -0.81100
H1049       H  0.91679719  0.68709047  0.24311885     0.33700
H1050       H  0.94237995  0.71185356  0.26364945     0.38200
H1051       H  0.90523820  0.50669637  0.28630126     0.33600
H1052       H  0.85030909  0.48677907  0.28514785     0.30300
H1053       H  0.73295478  0.51387526  0.26946999     0.33700
H1054       H  0.77756533  0.52275228  0.28199871     0.30300
H1055       H  0.82030825  0.40844091  0.22510866     0.38200
H1056       H  0.82685996  0.44365301  0.20640867     0.33700
C1057       C  0.93390277  0.61184650  0.14037510    -0.20100
C1058       C  0.89288699  0.59483875  0.13059860     0.36200
C1059       C  0.85248049  0.56332813  0.13994028    -0.26000
C1060       C  0.85250113  0.54798210  0.15860527     0.02600
C1061       C  0.89316478  0.56418184  0.16828487     0.27400
C1062       C  0.93341083  0.59610626  0.15913031    -0.25200
N1063       N  0.89240265  0.60815496  0.11106596    -0.82500
H1064       H  0.82094200  0.54961724  0.13249444     0.13200
C1065       C  0.81042313  0.51110009  0.16736454     0.02600
N1066       N  0.89336767  0.54672600  0.18711704    -0.81100
H1067       H  0.96459091  0.60871590  0.16673348     0.18000
C1068       C  0.79700211  0.46487960  0.16336868    -0.26000
C1069       C  0.76314175  0.42807523  0.17405402     0.36100
C1070       C  0.74193391  0.43752381  0.18883691    -0.20000
C1071       C  0.75337366  0.48360370  0.19205264    -0.25200
C1072       C  0.78749275  0.52066960  0.18150914     0.27400
H1073       H  0.81473697  0.45752551  0.15262981     0.13200
N1074       N  0.75249659  0.38146858  0.17069420    -0.82500
H1075       H  0.73643602  0.49091928  0.20318372     0.18100
N1076       N  0.79895278  0.56726672  0.18602589    -0.81100
H1077       H  0.78161675  0.38048292  0.17254610     0.33700
H1078       H  0.74232620  0.37323009  0.15646850     0.38200
H1079       H  0.77081931  0.56956109  0.18325690     0.33600
H1080       H  0.82434365  0.59183738  0.17712283     0.30300
H1081       H  0.92612702  0.56095359  0.19204525     0.33700
H1082       H  0.87771198  0.55806154  0.19642574     0.30300
H1083       H  0.90792402  0.59473983  0.10280570     0.38200
H1084       H  0.85957134  0.59272630  0.10606052     0.33700
C1085       C  0.42771999  0.35386785  0.29148032    -0.20100
C1086       C  0.47050591  0.39448216  0.29083228     0.36200
C1087       C  0.50502431  0.39375027  0.28111962    -0.26000
C1088       C  0.49715713  0.35342177  0.27180396     0.02600
C1089       C  0.45458356  0.31222780  0.27297878     0.27400
C1090       C  0.42026213  0.31271172  0.28311923    -0.25200
N1091       N  0.47837272  0.43642000  0.29980675    -0.82500
H1092       H  0.53797590  0.42502672  0.28039748     0.13200
C1093       C  0.53333268  0.35566743  0.26014345     0.02600
N1094       N  0.44603373  0.27078297  0.26330769    -0.81100
H1095       H  0.38705329  0.28175379  0.28361360     0.18000
C1096       C  0.54847100  0.32541606  0.26433407    -0.26000
C1097       C  0.58135089  0.32519697  0.25300378     0.36100
C1098       C  0.59976018  0.35640166  0.23738872    -0.20000
C1099       C  0.58608186  0.38820027  0.23379675    -0.25200
C1100       C  0.55238476  0.38755879  0.24477837     0.27400
H1101       H  0.53395866  0.30136194  0.27629060     0.13200
N1102       N  0.59508094  0.29255137  0.25697674    -0.82500
H1103       H  0.60113783  0.41297722  0.22210417     0.18100
N1104       N  0.53690111  0.41856689  0.24022856    -0.81100
H1105       H  0.57890286  0.27272688  0.26918201     0.33700
H1106       H  0.58417520  0.26930681  0.24559600     0.38200
H1107       H  0.55405275  0.43937555  0.22836298     0.33600
H1108       H  0.50328109  0.39818558  0.23628713     0.30300
H1109       H  0.41302101  0.24365775  0.26559796     0.33700
H1110       H  0.44937346  0.27789658  0.24861317     0.30300
H1111       H  0.47357510  0.42988233  0.31452076     0.38200
H1112       H  0.51164147  0.46331495  0.29791088     0.33700
C1113       C  0.67923391  0.28215387  0.23413044    -0.20100
C1114       C  0.64877800  0.23361935  0.23284552     0.36200
C1115       C  0.65400456  0.20337808  0.24498357    -0.26000
C1116       C  0.68860917  0.22037374  0.25850732     0.02600
C1117       C  0.71955910  0.26871649  0.25953946     0.27400
C1118       C  0.71441430  0.29911547  0.24738353    -0.25200
N1119       N  0.61271322  0.21503028  0.21927807    -0.82500
H1120       H  0.63081510  0.16613614  0.24393904     0.13200
C1121       C  0.69158600  0.18657138  0.27129560     0.02600
N1122       N  0.75575315  0.28672367  0.27302074    -0.81100
H1123       H  0.73801036  0.33631213  0.24822903     0.18000
C1124       C  0.73057199  0.18434983  0.27137640    -0.26000
C1125       C  0.73194642  0.14856418  0.28132445     0.36100
C1126       C  0.69331370  0.11411809  0.29094389    -0.20000
C1127       C  0.65533348  0.11779290  0.29174394    -0.25200
C1128       C  0.65429271  0.15410378  0.28229007     0.27400
H1129       H  0.75921375  0.20927660  0.26295403     0.13200
N1130       N  0.77119746  0.14526399  0.28063438    -0.82500
H1131       H  0.62577221  0.09115947  0.29922126     0.18100
N1132       N  0.61507098  0.15744348  0.28333627    -0.81100
H1133       H  0.79629438  0.17268725  0.27252511     0.33700
H1134       H  0.78352719  0.14949951  0.29457602     0.38200
H1135       H  0.59049910  0.13062924  0.29185960     0.33600
H1136       H  0.62416093  0.18866783  0.29019996     0.30300
H1137       H  0.77578874  0.32298082  0.27182537     0.33700
H1138       H  0.74184059  0.27939371  0.28675546     0.30300
H1139       H  0.59148572  0.22700965  0.22271268     0.38200
H1140       H  0.59358587  0.17867390  0.22014130     0.33700
C1141       C  0.67512988  0.28212117  0.19038624    -0.20100
C1142       C  0.64089320  0.25150544  0.17765981     0.36200
C1143       C  0.64657753  0.21977749  0.16715092    -0.26000
C1144       C  0.68467713  0.21683298  0.16944174     0.02600
C1145       C  0.71905389  0.24748170  0.18181616     0.27400
C1146       C  0.71422756  0.28040618  0.19197482    -0.25200
N1147       N  0.59911334  0.24960695  0.17572574    -0.82500
H1148       H  0.61999310  0.19558872  0.15776026     0.13200
C1149       C  0.68561674  0.17819007  0.16021854     0.02600
N1150       N  0.75818100  0.24440021  0.18424869    -0.81100
H1151       H  0.74058036  0.30416701  0.20154925     0.18000
C1152       C  0.70690656  0.18529281  0.14252071    -0.26000
C1153       C  0.70500838  0.14793981  0.13271054     0.36100
C1154       C  0.68219940  0.10289813  0.14113618    -0.20000
C1155       C  0.66169918  0.09654550  0.15912685    -0.25200
C1156       C  0.66281987  0.13361288  0.16864127     0.27400
H1157       H  0.72377194  0.21977456  0.13610281     0.13200
N1158       N  0.72469535  0.15542546  0.11402027    -0.82500
H1159       H  0.64432074  0.06236639  0.16579969     0.18100
N1160       N  0.63994179  0.12607597  0.18660724    -0.81100
H1161       H  0.74068097  0.19060246  0.11011276     0.33700
H1162       H  0.69857217  0.13734931  0.10429169     0.38200
H1163       H  0.62410014  0.09105814  0.19074345     0.33600
H1164       H  0.66398324  0.14511909  0.19703280     0.30300
H1165       H  0.78047325  0.26980185  0.19376822     0.33700
H1166       H  0.74805724  0.21216734  0.19062941     0.30300
H1167       H  0.59695373  0.27196430  0.18519598     0.38200
H1168       H  0.57358921  0.21614948  0.17979284     0.33700
C1169       C  0.24632238  0.25135578  0.11751879    -0.20100
C1170       C  0.25039843  0.21493907  0.10970342     0.36200
C1171       C  0.22035005  0.18640420  0.09540513    -0.26000
C1172       C  0.18547822  0.19225071  0.08921841     0.02600
C1173       C  0.17872687  0.22536961  0.09819885     0.27400
C1174       C  0.20910380  0.25449705  0.11218565    -0.25200
N1175       N  0.28528012  0.20741988  0.11589940    -0.82500
H1176       H  0.22460888  0.15998889  0.08873032     0.13200
C1177       C  0.15868844  0.16642415  0.07224788     0.02600
N1178       N  0.14189532  0.23036146  0.09261735    -0.81100
H1179       H  0.20431822  0.28095558  0.11842281     0.18000
C1180       C  0.11272568  0.13421830  0.07410514    -0.26000
C1181       C  0.08639802  0.11022604  0.05810305     0.36100
C1182       C  0.10644051  0.11980097  0.03966273    -0.20000
C1183       C  0.15256934  0.15254067  0.03800249    -0.25200
C1184       C  0.17883434  0.17557584  0.05404930     0.27400
H1185       H  0.09747825  0.12747361  0.08816398     0.13200
N1186       N  0.03948921  0.07695498  0.06062307    -0.82500
H1187       H  0.16854319  0.15991796  0.02409425     0.18100
N1188       N  0.22599733  0.20852388  0.05193878    -0.81100
H1189       H  0.02966059  0.07748673  0.07469061     0.33700
H1190       H  0.03456166  0.04380938  0.05872739     0.38200
H1191       H  0.23580149  0.21099808  0.03764729     0.33600
H1192       H  0.23193741  0.24130290  0.05569119     0.30300
H1193       H  0.14132786  0.25602505  0.10073711     0.33700
H1194       H  0.14714412  0.24199450  0.07841194     0.30300
H1195       H  0.27870044  0.19633930  0.13017449     0.38200
H1196       H  0.28426404  0.18027443  0.10826606     0.33700
C1197       C  0.39043941  0.32348267  0.15395222    -0.20100
C1198       C  0.40644539  0.29610508  0.14617179     0.36200
C1199       C  0.44414231  0.29793984  0.15442157    -0.26000
C1200       C  0.46691653  0.32773269  0.16974370     0.02600
C1201       C  0.45163939  0.35559214  0.17726634     0.27400
C1202       C  0.41352296  0.35289119  0.16946397    -0.25200
N1203       N  0.38553758  0.26782775  0.12963977    -0.82500
H1204       H  0.45667964  0.27718792  0.14854245     0.13200
C1205       C  0.50822384  0.33177679  0.17737383     0.02600
N1206       N  0.47533862  0.38695129  0.19271418    -0.81100
H1207       H  0.40189476  0.37414989  0.17563937     0.18000
C1208       C  0.54951447  0.37138999  0.17265625    -0.26000
C1209       C  0.58932717  0.37989410  0.18116167     0.36100
C1210       C  0.58783953  0.34712315  0.19449155    -0.20000
C1211       C  0.54636763  0.30696722  0.19890407    -0.25200
C1212       C  0.50649175  0.29910332  0.19057519     0.27400
H1213       H  0.55058347  0.39685315  0.16272516     0.13200
N1214       N  0.62984847  0.42281943  0.17640513    -0.82500
H1215       H  0.54514266  0.28194782  0.20913102     0.18100
N1216       N  0.46425979  0.25853155  0.19565454    -0.81100
H1217       H  0.62548497  0.45013486  0.18032353     0.33700
H1218       H  0.65675571  0.42721927  0.18443594     0.38200
H1219       H  0.46889426  0.23779131  0.20545533     0.33600
H1220       H  0.44531621  0.26983597  0.20267733     0.30300
H1221       H  0.46038531  0.40581864  0.19639374     0.33700
H1222       H  0.47247299  0.36672276  0.20466585     0.30300
H1223       H  0.39048077  0.29027467  0.11821282     0.38200
H1224       H  0.40130684  0.24984799  0.12583696     0.33700
C1225       C  0.33246533  0.60142106  0.19576316    -0.20100
C1226       C  0.36427733  0.58760891  0.19695611     0.36200
C1227       C  0.35675347  0.54852629  0.18682982    -0.26000
C1228       C  0.31910678  0.52371382  0.17509101     0.02600
C1229       C  0.28784078  0.53792671  0.17359373     0.27400
C1230       C  0.29489838  0.57678830  0.18397319    -0.25200
N1231       N  0.40522081  0.61307597  0.20759789    -0.82500
H1232       H  0.38085676  0.53764349  0.18797532     0.13200
C1233       C  0.31319443  0.48272399  0.16468157     0.02600
N1234       N  0.24927362  0.51295797  0.16152395    -0.81100
H1235       H  0.27088092  0.58781427  0.18299221     0.18000
C1236       C  0.27583024  0.43848052  0.16869113    -0.26000
C1237       C  0.27250298  0.39812414  0.16119193     0.36100
C1238       C  0.30739402  0.40250656  0.14960001    -0.20000
C1239       C  0.34355340  0.44683159  0.14482123    -0.25200
C1240       C  0.34664620  0.48709615  0.15212008     0.27400
H1241       H  0.25032930  0.43535082  0.17841815     0.13200
N1242       N  0.23564780  0.35278819  0.16641809    -0.82500
H1243       H  0.37016345  0.44988160  0.13583559     0.18100
N1244       N  0.38423888  0.53237000  0.14733457    -0.81100
H1245       H  0.21402839  0.35569954  0.17580123     0.33700
H1246       H  0.21726434  0.33730293  0.15401712     0.38200
H1247       H  0.40602714  0.52948266  0.13804704     0.33600
H1248       H  0.37201477  0.55046208  0.13986707     0.30300
H1249       H  0.22942631  0.52773187  0.16213933     0.33700
H1250       H  0.26063926  0.51687926  0.14741625     0.30300
H1251       H  0.41001776  0.64409541  0.21307752     0.38200
H1252       H  0.40331176  0.59222186  0.21916120     0.33700
loop_ 
_geom_bond_atom_site_label_1 
_geom_bond_atom_site_label_2 
_geom_bond_distance 
_geom_bond_site_symmetry_2 
_ccdc_geom_bond_type 
C1            N2   1.367       .  A
C1            N6   1.362       .  A
C1         C1169   1.498       .  S
N2            C3   1.364       .  A
C3            N4   1.355       .  A
C3         C1197   1.492       .  S
N4            C5   1.350       .  A
C5            N6   1.354       .  A
C5         C1238   1.469       .  S
C7            H8   1.111       .  S
C7           C13   1.533       .  S
C7           C12   1.536       .  S
C7           C11   1.529       .  S
C9           H10   1.111       .  S
C9           C15   1.537       .  S
C9           C14   1.535       .  S
C9           C16   1.537       .  S
C11          C14   1.373       .  D
C11        C1029   1.477       .  S
C12          C15   1.376       .  D
C12        C1113   1.489       .  S
C13          C16   1.374       .  D
C13        C1098   1.482       .  S
C14        C1070   1.481       .  S
C15        C1141   1.481       .  S
C16        C1210   1.490       .  S
C17          H18   1.111       .  S
C17          C23   1.537       .  S
C17          C22   1.533       .  S
C17          C21   1.537       .  S
C19          H20   1.111       .  S
C19          C25   1.534       .  S
C19          C24   1.529       .  S
C19          C26   1.530       .  S
C21          C24   1.373       .  D
C21        C1001   1.487       .  S
C22          C25   1.377       .  D
C22         C930   1.481       .  S
C23          C26   1.374       .  D
C23         C986   1.480       .  S
C24        C1225   1.477       .  S
C25         C889   1.483       .  S
C26         C945   1.482       .  S
C27          N28   1.361   1_455  A
C27          N32   1.358       .  A
C27         C861   1.481       .  S
N28          C29   1.361       .  A
C29          N30   1.358   1_655  A
C29        C1057   1.485       .  S
N30          C31   1.355       .  A
C31          N32   1.355       .  A
C31         C902   1.472       .  S
C33          N34   1.361       .  A
C33          N38   1.362   1_545  A
C33         C833   1.483       .  S
N34          C35   1.359       .  A
C35          N36   1.356       .  A
C35        C1154   1.486       .  S
N36          C37   1.353   1_545  A
C37          N38   1.355       .  A
C37         C958   1.472       .  S
C39          N40   1.362   1_455  A
C39          N44   1.360       .  A
C39         C805   1.488       .  S
N40          C41   1.357       .  A
C41          N42   1.351   1_655  A
C41        C1042   1.469       .  S
N42          C43   1.352       .  A
C43          N44   1.358       .  A
C43         C917   1.488       .  S
C45          N46   1.363       .  A
C45          N50   1.365   1_545  A
C45         C777   1.483       .  S
N46          C47   1.357       .  A
C47          N48   1.351       .  A
C47        C1126   1.469       .  S
N48          C49   1.354   1_545  A
C49          N50   1.360       .  A
C49         C973   1.491       .  S
C51          N52   1.366       .  A
C51          N56   1.359       .  A
C51         C749   1.485       .  S
N52          C53   1.363       .  A
C53          N54   1.355       .  A
C53        C1014   1.496       .  S
N54          C55   1.349       .  A
C55          N56   1.351       .  A
C55        C1085   1.462       .  S
Zr57         O58   2.440   1_545  S
Zr57         O59   2.438       .  S
Zr57         O60   2.437   1_655  S
Zr57         O63   2.432   1_545  S
Zr57         O65   2.376   1_655  S
Zr57         O66   2.381       .  S
Zr57         O67   2.409   1_645  S
Zr57         O68   2.401   1_545  S
O58         H114   0.990   1_655  S
O58         H122   0.990   1_655  S
O59          C79   1.283   1_655  A
O60          C81   1.284       .  A
O61         Zr71   2.430       .  S
O61          C80   1.284       .  A
O62         Zr70   2.415       .  S
O62          C81   1.281       .  A
O63          C80   1.284       .  A
O64         Zr72   2.408       .  S
O64          C79   1.279       .  A
O65         Zr70   2.392       .  S
O65         Zr72   2.375       .  S
O66         Zr71   2.395   1_545  S
O66         Zr72   2.382   1_655  S
O66         H101   0.972       .  S
O67         Zr70   2.405   1_565  S
O67         Zr87   2.390       .  S
O67         H104   0.966       .  S
O68         Zr71   2.389       .  S
O68         Zr87   2.394   1_655  S
Zr69         O94   2.442       .  S
Zr69         O88   2.437   1_545  S
Zr69         O96   2.424   1_455  S
Zr69         O84   2.431       .  S
Zr69         O75   2.398   1_455  S
Zr69         O76   2.403       .  S
Zr69         O77   2.374       .  S
Zr69         O78   2.380   1_445  S
Zr70         O89   2.436       .  S
Zr70         O82   2.435       .  S
Zr70         O83   2.420       .  S
Zr70         O76   2.399       .  S
Zr70         O77   2.392       .  S
Zr71         O73   2.438       .  S
Zr71         O95   2.436       .  S
Zr71         O97   2.423       .  S
Zr71         O75   2.392   1_565  S
Zr71         O78   2.399       .  S
Zr72         O98   2.437   1_455  S
Zr72         O99   2.435       .  S
Zr72         O74   2.439       .  S
Zr72         O75   2.391   1_455  S
Zr72         O76   2.392       .  S
O73         H110   0.989       .  S
O74         H105   0.990       .  S
O74         H119   0.990       .  S
O76         H102   0.967       .  S
O77         Zr87   2.373   1_545  S
O78         Zr87   2.380   1_655  S
O78         H103   0.965       .  S
C79         C693   1.493   1_455  S
C80         C665   1.488       .  S
C81         C721   1.472       .  S
O82         H118   0.990       .  S
O83          C85   1.282       .  A
O84          C85   1.283       .  A
C85         C762   1.476       .  S
O86         Zr87   2.439   1_655  S
O86         H115   0.990       .  S
Zr87         O90   2.438       .  S
Zr87         O91   2.440   1_455  S
Zr87         O92   2.415       .  S
O88          C93   1.283       .  A
O89         H106   0.990       .  S
O89         H121   0.990       .  S
O90         H107   0.990       .  S
O91         H111   0.990       .  S
O91         H120   0.990       .  S
O92          C93   1.281       .  A
C93         C818   1.496       .  S
O94         H113   0.990       .  S
O94         H117   0.991       .  S
O95         H109   0.990   1_565  S
O95         H116   0.990       .  S
O96         C100   1.283   1_545  A
O97         C100   1.283       .  A
O98         H108   0.990       .  S
O99         H112   0.990       .  S
C100        C790   1.480       .  S
Zr123       O124   2.442       .  S
Zr123       O125   2.444   1_445  S
Zr123       O126   2.433       .  S
Zr123       O129   2.429   1_455  S
Zr123       O131   2.382   1_445  S
Zr123       O132   2.379   1_445  S
Zr123       O133   2.411       .  S
Zr123       O134   2.399       .  S
O124        H180   0.991       .  S
O124        H188   0.990       .  S
O125        C145   1.285       .  A
O126        C147   1.284   1_545  A
O127       Zr137   2.429       .  S
O127        C146   1.284       .  A
O128       Zr136   2.422       .  S
O128        C147   1.281       .  A
O129        C146   1.284       .  A
O130       Zr138   2.414       .  S
O130        C145   1.281       .  A
O131       Zr136   2.402   1_655  S
O131       Zr138   2.379       .  S
O132       Zr137   2.391   1_565  S
O132       Zr138   2.379       .  S
O132        H167   0.965       .  S
O133       Zr136   2.403   1_545  S
O133       Zr153   2.406       .  S
O133        H170   0.965       .  S
O134       Zr137   2.391   1_455  S
O134       Zr153   2.397       .  S
Zr135       O160   2.440       .  S
Zr135       O154   2.426   1_665  S
Zr135       O162   2.420   1_565  S
Zr135       O150   2.414   1_655  S
Zr135       O141   2.393   1_554  S
Zr135       O142   2.403   1_554  S
Zr135       O143   2.378   1_664  S
Zr135       O144   2.377   1_664  S
Zr136       O155   2.438   1_565  S
Zr136       O148   2.435       .  S
Zr136       O149   2.442       .  S
Zr136       O142   2.399   1_455  S
Zr136       O143   2.391   1_565  S
Zr137       O139   2.435       .  S
Zr137       O161   2.436       .  S
Zr137       O163   2.425       .  S
Zr137       O141   2.389   1_545  S
Zr137       O144   2.389   1_655  S
Zr138       O164   2.436       .  S
Zr138       O165   2.436       .  S
Zr138       O140   2.436       .  S
Zr138       O141   2.390       .  S
Zr138       O142   2.391       .  S
O139        H176   0.990       .  S
O140        H171   0.990       .  S
O140        H185   0.990       .  S
O142        H168   0.966       .  S
O143       Zr153   2.373       .  S
O144       Zr153   2.374       .  S
O144        H169   0.965       .  S
C145        C581   1.490       .  S
C146        C650   1.487       .  S
C147        C609   1.491       .  S
O148        H184   0.990       .  S
O149        C151   1.286   1_556  A
O150        C151   1.280       .  A
C151        C874   1.485       .  S
O152       Zr153   2.439       .  S
O152        H181   0.991       .  S
Zr153       O156   2.438       .  S
Zr153       O157   2.439       .  S
Zr153       O158   2.441   1_556  S
O154        C159   1.282       .  A
O155        H172   0.990   1_545  S
O155        H187   0.990       .  S
O156        H173   0.990       .  S
O157        H177   0.990       .  S
O157        H186   0.990       .  S
O158        C159   1.287       .  A
C159       C1182   1.495       .  S
O160        H179   0.991       .  S
O160        H183   0.991       .  S
O161        H175   0.990       .  S
O161        H182   0.990   1_545  S
O162        C166   1.283       .  A
O163        C166   1.284   1_556  A
O164        H174   0.990       .  S
O165        H178   0.991       .  S
C166        C846   1.477       .  S
C189        N190   1.360   1_655  A
C189        N194   1.364       .  A
C189        C706   1.488       .  S
N190        C191   1.356       .  A
C191        N192   1.349   1_455  A
C191        C553   1.474       .  S
N192        C193   1.354       .  A
C193        N194   1.360       .  A
C193        C525   1.482       .  S
C195        N196   1.363   1_655  A
C195        N200   1.363       .  A
C195        C637   1.494       .  S
N196        C197   1.360       .  A
C197        N198   1.357   1_455  A
C197        C497   1.489       .  S
N198        C199   1.357       .  A
C199        N200   1.360       .  A
C199        C482   1.478       .  S
C201        H202   1.111       .  S
C201        C207   1.533       .  S
C201        C206   1.529       .  S
C201        C205   1.533       .  S
C203        H204   1.111       .  S
C203        C209   1.536       .  S
C203        C208   1.536       .  S
C203        C210   1.534       .  S
C205        C208   1.377       .  D
C205        C413   1.480       .  S
C206        C209   1.373       .  D
C206        C538   1.483       .  S
C207        C210   1.377       .  D
C207        C370   1.487       .  S
C208        C441   1.486       .  S
C209        C469   1.482       .  S
C210        C398   1.479       .  S
C211        H212   1.110       .  S
C211        C217   1.538       .  S
C211        C216   1.533       .  S
C211        C215   1.535       .  S
C213        H214   1.111       .  S
C213        C219   1.529       .  S
C213        C218   1.529       .  S
C213        C220   1.529       .  S
C215        C218   1.376       .  D
C215        C301   1.486       .  S
C216        C219   1.374       .  D
C216        C258   1.484       .  S
C217        C220   1.376       .  D
C217        C510   1.489       .  S
C218        C342   1.477       .  S
C219        C273   1.477       .  S
C220        C566   1.478       .  S
C221        N222   1.364   1_545  A
C221        N226   1.361       .  A
C221        C734   1.489       .  S
N222        C223   1.361       .  A
C223        N224   1.354   1_565  A
C223        C329   1.475       .  S
N224        C225   1.352       .  A
C225        N226   1.355       .  A
C225        C426   1.474       .  S
C227        N228   1.362       .  A
C227        N232   1.360       .  A
C227        C678   1.487       .  S
N228        C229   1.359       .  A
C229        N230   1.356       .  A
C229        C357   1.491       .  S
N230        C231   1.354       .  A
C231        N232   1.356       .  A
C231        C286   1.478       .  S
C233        N234   1.361       .  A
C233        N238   1.365       .  A
C233        C594   1.488       .  S
N234        C235   1.355       .  A
C235        N236   1.351       .  A
C235        C385   1.473       .  S
N236        C237   1.354       .  A
C237        N238   1.362       .  A
C237        C245   1.483       .  S
C239        N240   1.365       .  A
C239        N244   1.358   1_545  A
C239        C622   1.481       .  S
N240        C241   1.361       .  A
C241        N242   1.356       .  A
C241        C454   1.478       .  S
N242        C243   1.355   1_545  A
C243        N244   1.354       .  A
C243        C314   1.489       .  S
C245        C246   1.414       .  A
C245        C250   1.407       .  A
C246        C247   1.397       .  A
C246        N251   1.433       .  S
C247        C248   1.397       .  A
C247        H252   1.083       .  S
C248        C253   1.476       .  S
C248        C249   1.408       .  A
C249        C250   1.409       .  A
C249        N254   1.437       .  S
C250        H255   1.083       .  S
N251        H271   1.046       .  S
N251        H272   1.046       .  S
C253        C256   1.403       .  A
C253        C260   1.408       .  A
N254        H269   1.045       .  S
N254        H270   1.046       .  S
C256        C257   1.406       .  A
C256        H261   1.084       .  S
C257        C258   1.410       .  A
C257        N262   1.438       .  S
C258        C259   1.404       .  A
C259        C260   1.400       .  A
C259        H263   1.083       .  S
C260        N264   1.438       .  S
N262        H265   1.045       .  S
N262        H266   1.044       .  S
N264        H267   1.046       .  S
N264        H268   1.044       .  S
C273        C274   1.416       .  A
C273        C278   1.402       .  A
C274        C275   1.393       .  A
C274        N279   1.438       .  S
C275        C276   1.402       .  A
C275        H280   1.084       .  S
C276        C281   1.485       .  S
C276        C277   1.412       .  A
C277        C278   1.406       .  A
C277        N282   1.437       .  S
C278        H283   1.084       .  S
N279        H299   1.041       .  S
N279        H300   1.045       .  S
C281        C284   1.404       .  A
C281        C288   1.411       .  A
N282        H297   1.046       .  S
N282        H298   1.046       .  S
C284        C285   1.407       .  A
C284        H289   1.083       .  S
C285        C286   1.413       .  A
C285        N290   1.437       .  S
C286        C287   1.403       .  A
C287        C288   1.400       .  A
C287        H291   1.084       .  S
C288        N292   1.438       .  S
N290        H293   1.046       .  S
N290        H294   1.045       .  S
N292        H295   1.046       .  S
N292        H296   1.045       .  S
C301        C302   1.413       .  A
C301        C306   1.402       .  A
C302        C303   1.403       .  A
C302        N307   1.437       .  S
C303        C304   1.399       .  A
C303        H308   1.084       .  S
C304        C309   1.475       .  S
C304        C305   1.416       .  A
C305        C306   1.401       .  A
C305        N310   1.439       .  S
C306        H311   1.084       .  S
N307        H327   1.045       .  S
N307        H328   1.045       .  S
C309        C312   1.399       .  A
C309        C316   1.405       .  A
N310        H325   1.046       .  S
N310        H326   1.043       .  S
C312        C313   1.404       .  A
C312        H317   1.084       .  S
C313        C314   1.417       .  A
C313        N318   1.432       .  S
C314        C315   1.409       .  A
C315        C316   1.402       .  A
C315        H319   1.083       .  S
C316        N320   1.438       .  S
N318        H321   1.045       .  S
N318        H322   1.046       .  S
N320        H323   1.045       .  S
N320        H324   1.045       .  S
C329        C330   1.411       .  A
C329        C334   1.403       .  A
C330        C331   1.408       .  A
C330        N335   1.436       .  S
C331        C332   1.403       .  A
C331        H336   1.083       .  S
C332        C337   1.480       .  S
C332        C333   1.410       .  A
C333        C334   1.401       .  A
C333        N338   1.439       .  S
C334        H339   1.084       .  S
N335        H355   1.045       .  S
N335        H356   1.046       .  S
C337        C340   1.404       .  A
C337        C344   1.411       .  A
N338        H353   1.046       .  S
N338        H354   1.046       .  S
C340        C341   1.398       .  A
C340        H345   1.084       .  S
C341        C342   1.405       .  A
C341        N346   1.433       .  S
C342        C343   1.402       .  A
C343        C344   1.407       .  A
C343        H347   1.084       .  S
C344        N348   1.437       .  S
N346        H349   1.046       .  S
N346        H350   1.046       .  S
N348        H351   1.046       .  S
N348        H352   1.045       .  S
C357        C358   1.420       .  A
C357        C362   1.409       .  A
C358        C359   1.410       .  A
C358        N363   1.437       .  S
C359        C360   1.400       .  A
C359        H364   1.084       .  S
C360        C365   1.475       .  S
C360        C361   1.404       .  A
C361        C362   1.400       .  A
C361        N366   1.439       .  S
C362        H367   1.083       .  S
N363        H383   1.045       .  S
N363        H384   1.046       .  S
C365        C368   1.400       .  A
C365        C372   1.407       .  A
N366        H381   1.045       .  S
N366        H382   1.045       .  S
C368        C369   1.404       .  A
C368        H373   1.084       .  S
C369        C370   1.412       .  A
C369        N374   1.437       .  S
C370        C371   1.404       .  A
C371        C372   1.404       .  A
C371        H375   1.084       .  S
C372        N376   1.438       .  S
N374        H377   1.046       .  S
N374        H378   1.045       .  S
N376        H379   1.046       .  S
N376        H380   1.045       .  S
C385        C386   1.407       .  A
C385        C390   1.403       .  A
C386        C387   1.402       .  A
C386        N391   1.432       .  S
C387        C388   1.404       .  A
C387        H392   1.084       .  S
C388        C393   1.484       .  S
C388        C389   1.413       .  A
C389        C390   1.403       .  A
C389        N394   1.438       .  S
C390        H395   1.084       .  S
N391        H411   1.046       .  S
N391        H412   1.046       .  S
C393        C396   1.404       .  A
C393        C400   1.412       .  A
N394        H409   1.046       .  S
N394        H410   1.046       .  S
C396        C397   1.398       .  A
C396        H401   1.084       .  S
C397        C398   1.416       .  A
C397        N402   1.438       .  S
C398        C399   1.401       .  A
C399        C400   1.405       .  A
C399        H403   1.084       .  S
C400        N404   1.437       .  S
N402        H405   1.045       .  S
N402        H406   1.043       .  S
N404        H407   1.046       .  S
N404        H408   1.045       .  S
C413        C414   1.406       .  A
C413        C418   1.403       .  A
C414        C415   1.398       .  A
C414        N419   1.432       .  S
C415        C416   1.402       .  A
C415        H420   1.084       .  S
C416        C421   1.476       .  S
C416        C417   1.416       .  A
C417        C418   1.399       .  A
C417        N422   1.438       .  S
C418        H423   1.084       .  S
N419        H439   1.045       .  S
N419        H440   1.046       .  S
C421        C424   1.401       .  A
C421        C428   1.408       .  A
N422        H437   1.045       .  S
N422        H438   1.043       .  S
C424        C425   1.402       .  A
C424        H429   1.084       .  S
C425        C426   1.413       .  A
C425        N430   1.438       .  S
C426        C427   1.404       .  A
C427        C428   1.405       .  A
C427        H431   1.084       .  S
C428        N432   1.437       .  S
N430        H433   1.046       .  S
N430        H434   1.046       .  S
N432        H435   1.045       .  S
N432        H436   1.046       .  S
C441        C442   1.407       .  A
C441        C446   1.404       .  A
C442        C443   1.397       .  A
C442        N447   1.431       .  S
C443        C444   1.403       .  A
C443        H448   1.084       .  S
C444        C449   1.488       .  S
C444        C445   1.412       .  A
C445        C446   1.412       .  A
C445        N450   1.437       .  S
C446        H451   1.084       .  S
N447        H467   1.045       .  S
N447        H468   1.046       .  S
C449        C452   1.406       .  A
C449        C456   1.411       .  A
N450        H465   1.046       .  S
N450        H466   1.045       .  S
C452        C453   1.412       .  A
C452        H457   1.083       .  S
C453        C454   1.412       .  A
C453        N458   1.437       .  S
C454        C455   1.402       .  A
C455        C456   1.399       .  A
C455        H459   1.084       .  S
C456        N460   1.438       .  S
N458        H461   1.046       .  S
N458        H462   1.046       .  S
N460        H463   1.046       .  S
N460        H464   1.045       .  S
C469        C470   1.407       .  A
C469        C474   1.401       .  A
C470        C471   1.408       .  A
C470        N475   1.432       .  S
C471        C472   1.406       .  A
C471        H476   1.084       .  S
C472        C477   1.486       .  S
C472        C473   1.414       .  A
C473        C474   1.395       .  A
C473        N478   1.433       .  S
C474        H479   1.084       .  S
N475        H495   1.045       .  S
N475        H496   1.045       .  S
C477        C480   1.404       .  A
C477        C484   1.419       .  A
N478        H493   1.044       .  S
N478        H494   1.045       .  S
C480        C481   1.405       .  A
C480        H485   1.084       .  S
C481        C482   1.410       .  A
C481        N486   1.438       .  S
C482        C483   1.402       .  A
C483        C484   1.406       .  A
C483        H487   1.084       .  S
C484        N488   1.439       .  S
N486        H489   1.045       .  S
N486        H490   1.046       .  S
N488        H491   1.046       .  S
N488        H492   1.042       .  S
C497        C498   1.417       .  A
C497        C502   1.408       .  A
C498        C499   1.405       .  A
C498        N503   1.438       .  S
C499        C500   1.400       .  A
C499        H504   1.084       .  S
C500        C505   1.481       .  S
C500        C501   1.408       .  A
C501        C502   1.408       .  A
C501        N506   1.437       .  S
C502        H507   1.083       .  S
N503        H523   1.045       .  S
N503        H524   1.046       .  S
C505        C508   1.402       .  A
C505        C512   1.409       .  A
N506        H521   1.046       .  S
N506        H522   1.046       .  S
C508        C509   1.402       .  A
C508        H513   1.084       .  S
C509        C510   1.408       .  A
C509        N514   1.431       .  S
C510        C511   1.407       .  A
C511        C512   1.406       .  A
C511        H515   1.083       .  S
C512        N516   1.437       .  S
N514        H517   1.045       .  S
N514        H518   1.045       .  S
N516        H519   1.046       .  S
N516        H520   1.046       .  S
C525        C526   1.416       .  A
C525        C530   1.406       .  A
C526        C527   1.410       .  A
C526        N531   1.437       .  S
C527        C528   1.402       .  A
C527        H532   1.084       .  S
C528        C533   1.474       .  S
C528        C529   1.405       .  A
C529        C530   1.398       .  A
C529        N534   1.438       .  S
C530        H535   1.084       .  S
N531        H551   1.046       .  S
N531        H552   1.046       .  S
C533        C536   1.397       .  A
C533        C540   1.409       .  A
N534        H549   1.046       .  S
N534        H550   1.045       .  S
C536        C537   1.397       .  A
C536        H541   1.084       .  S
C537        C538   1.419       .  A
C537        N542   1.437       .  S
C538        C539   1.402       .  A
C539        C540   1.406       .  A
C539        H543   1.084       .  S
C540        N544   1.438       .  S
N542        H545   1.045       .  S
N542        H546   1.041       .  S
N544        H547   1.046       .  S
N544        H548   1.045       .  S
C553        C554   1.410       .  A
C553        C558   1.403       .  A
C554        C555   1.399       .  A
C554        N559   1.433       .  S
C555        C556   1.403       .  A
C555        H560   1.084       .  S
C556        C561   1.482       .  S
C556        C557   1.412       .  A
C557        C558   1.404       .  A
C557        N562   1.438       .  S
C558        H563   1.084       .  S
N559        H579   1.046       .  S
N559        H580   1.045       .  S
C561        C564   1.403       .  A
C561        C568   1.412       .  A
N562        H577   1.046       .  S
N562        H578   1.046       .  S
C564        C565   1.395       .  A
C564        H569   1.084       .  S
C565        C566   1.410       .  A
C565        N570   1.430       .  S
C566        C567   1.402       .  A
C567        C568   1.402       .  A
C567        H571   1.084       .  S
C568        N572   1.437       .  S
N570        H573   1.042       .  S
N570        H574   1.044       .  S
N572        H575   1.046       .  S
N572        H576   1.046       .  S
C581        C582   1.417       .  A
C581        C586   1.409       .  A
C582        C583   1.411       .  A
C582        N587   1.438       .  S
C583        C584   1.403       .  A
C583        H588   1.084       .  S
C584        C589   1.480       .  S
C584        C585   1.405       .  A
C585        C586   1.401       .  A
C585        N590   1.438       .  S
C586        H591   1.083       .  S
N587        H607   1.046       .  S
N587        H608   1.046       .  S
C589        C592   1.399       .  A
C589        C596   1.408       .  A
N590        H605   1.046       .  S
N590        H606   1.046       .  S
C592        C593   1.400       .  A
C592        H597   1.084       .  S
C593        C594   1.415       .  A
C593        N598   1.432       .  S
C594        C595   1.408       .  A
C595        C596   1.410       .  A
C595        H599   1.083       .  S
C596        N600   1.437       .  S
N598        H601   1.046       .  S
N598        H602   1.046       .  S
N600        H603   1.046       .  S
N600        H604   1.046       .  S
C609        C610   1.421       .  A
C609        C614   1.409       .  A
C610        C611   1.406       .  A
C610        N615   1.438       .  S
C611        C612   1.399       .  A
C611        H616   1.084       .  S
C612        C617   1.477       .  S
C612        C613   1.407       .  A
C613        C614   1.402       .  A
C613        N618   1.438   1_565  S
C614        H619   1.083       .  S
N615        H635   1.046       .  S
N615        H636   1.046       .  S
C617        C620   1.398       .  A
C617        C624   1.409   1_565  A
N618        H633   1.046       .  S
N618        H634   1.045       .  S
C620        C621   1.402       .  A
C620        H625   1.084       .  S
C621        C622   1.417   1_565  A
C621        N626   1.438       .  S
C622        C623   1.404       .  A
C623        C624   1.406       .  A
C623        H627   1.084       .  S
C624        N628   1.438       .  S
N626        H629   1.046       .  S
N626        H630   1.045       .  S
N628        H631   1.046       .  S
N628        H632   1.045       .  S
C637        C638   1.418       .  A
C637        C642   1.408   1_655  A
C638        C639   1.409       .  A
C638        N643   1.437       .  S
C639        C640   1.402       .  A
C639        H644   1.084       .  S
C640        C645   1.488       .  S
C640        C641   1.410   1_655  A
C641        C642   1.405       .  A
C641        N646   1.438       .  S
C642        H647   1.083       .  S
N643        H663   1.046       .  S
N643        H664   1.046       .  S
C645        C648   1.402       .  A
C645        C652   1.410       .  A
N646        H661   1.046       .  S
N646        H662   1.046       .  S
C648        C649   1.404       .  A
C648        H653   1.084       .  S
C649        C650   1.415       .  A
C649        N654   1.438       .  S
C650        C651   1.408       .  A
C651        C652   1.409       .  A
C651        H655   1.084       .  S
C652        N656   1.437       .  S
N654        H657   1.046       .  S
N654        H658   1.046       .  S
N656        H659   1.046       .  S
N656        H660   1.046   1_655  S
C665        C666   1.417       .  A
C665        C670   1.407       .  A
C666        C667   1.403       .  A
C666        N671   1.437       .  S
C667        C668   1.400       .  A
C667        H672   1.084       .  S
C668        C673   1.483       .  S
C668        C669   1.409       .  A
C669        C670   1.407       .  A
C669        N674   1.437       .  S
C670        H675   1.083       .  S
N671        H691   1.046       .  S
N671        H692   1.046       .  S
C673        C676   1.400       .  A
C673        C680   1.409       .  A
N674        H689   1.046       .  S
N674        H690   1.046       .  S
C676        C677   1.405       .  A
C676        H681   1.084       .  S
C677        C678   1.418       .  A
C677        N682   1.438       .  S
C678        C679   1.407       .  A
C679        C680   1.405       .  A
C679        H683   1.083       .  S
C680        N684   1.438       .  S
N682        H685   1.046       .  S
N682        H686   1.046       .  S
N684        H687   1.046       .  S
N684        H688   1.046       .  S
C693        C694   1.419       .  A
C693        C698   1.410   1_655  A
C694        C695   1.407       .  A
C694        N699   1.437       .  S
C695        C696   1.401       .  A
C695        H700   1.084       .  S
C696        C701   1.482       .  S
C696        C697   1.408   1_655  A
C697        C698   1.401       .  A
C697        N702   1.439       .  S
C698        H703   1.083       .  S
N699        H719   1.046   1_655  S
N699        H720   1.046       .  S
C701        C704   1.399   1_655  A
C701        C708   1.410       .  A
N702        H717   1.046       .  S
N702        H718   1.045   1_455  S
C704        C705   1.398       .  A
C704        H709   1.084       .  S
C705        C706   1.415   1_455  A
C705        N710   1.433       .  S
C706        C707   1.408       .  A
C707        C708   1.408       .  A
C707        H711   1.083       .  S
C708        N712   1.438       .  S
N710        H713   1.046       .  S
N710        H714   1.046       .  S
N712        H715   1.046       .  S
N712        H716   1.046       .  S
C721        C722   1.410       .  A
C721        C726   1.404       .  A
C722        C723   1.404       .  A
C722        N727   1.438       .  S
C723        C724   1.404       .  A
C723        H728   1.084       .  S
C724        C729   1.480       .  S
C724        C725   1.409       .  A
C725        C726   1.402       .  A
C725        N730   1.438       .  S
C726        H731   1.084       .  S
N727        H747   1.046       .  S
N727        H748   1.045       .  S
C729        C732   1.403   1_545  A
C729        C736   1.406       .  A
N730        H745   1.046       .  S
N730        H746   1.046       .  S
C732        C733   1.407       .  A
C732        H737   1.084       .  S
C733        C734   1.416   1_565  A
C733        N738   1.437       .  S
C734        C735   1.409       .  A
C735        C736   1.401       .  A
C735        H739   1.083       .  S
C736        N740   1.438       .  S
N738        H741   1.046       .  S
N738        H742   1.046       .  S
N740        H743   1.045       .  S
N740        H744   1.046       .  S
C749        C750   1.414       .  A
C749        C754   1.408       .  A
C750        C751   1.406       .  A
C750        N755   1.437       .  S
C751        C752   1.402       .  A
C751        H756   1.084       .  S
C752        C757   1.478       .  S
C752        C753   1.406       .  A
C753        C754   1.401       .  A
C753        N758   1.438       .  S
C754        H759   1.083       .  S
N755        H775   1.046       .  S
N755        H776   1.046       .  S
C757        C760   1.401       .  A
C757        C764   1.408       .  A
N758        H773   1.046       .  S
N758        H774   1.046       .  S
C760        C761   1.402       .  A
C760        H765   1.084       .  S
C761        C762   1.412       .  A
C761        N766   1.438       .  S
C762        C763   1.405       .  A
C763        C764   1.404       .  A
C763        H767   1.084       .  S
C764        N768   1.438       .  S
N766        H769   1.046       .  S
N766        H770   1.046       .  S
N768        H771   1.046       .  S
N768        H772   1.046       .  S
C777        C778   1.415   1_545  A
C777        C782   1.406       .  A
C778        C779   1.404       .  A
C778        N783   1.437       .  S
C779        C780   1.399   1_565  A
C779        H784   1.084       .  S
C780        C785   1.478       .  S
C780        C781   1.408       .  A
C781        C782   1.405       .  A
C781        N786   1.438       .  S
C782        H787   1.084       .  S
N783        H803   1.046       .  S
N783        H804   1.046       .  S
C785        C788   1.400       .  A
C785        C792   1.408       .  A
N786        H801   1.046       .  S
N786        H802   1.046       .  S
C788        C789   1.403   1_545  A
C788        H793   1.084       .  S
C789        C790   1.414       .  A
C789        N794   1.438       .  S
C790        C791   1.407   1_565  A
C791        C792   1.405       .  A
C791        H795   1.084       .  S
C792        N796   1.438       .  S
N794        H797   1.046       .  S
N794        H798   1.046       .  S
N796        H799   1.046       .  S
N796        H800   1.046       .  S
C805        C806   1.419       .  A
C805        C810   1.407   1_455  A
C806        C807   1.404       .  A
C806        N811   1.438       .  S
C807        C808   1.401       .  A
C807        H812   1.084       .  S
C808        C813   1.482       .  S
C808        C809   1.408   1_455  A
C809        C810   1.405       .  A
C809        N814   1.438       .  S
C810        H815   1.083       .  S
N811        H831   1.046       .  S
N811        H832   1.046       .  S
C813        C816   1.401       .  A
C813        C820   1.407       .  A
N814        H829   1.045       .  S
N814        H830   1.046       .  S
C816        C817   1.409       .  A
C816        H821   1.084       .  S
C817        C818   1.421       .  A
C817        N822   1.437       .  S
C818        C819   1.410       .  A
C819        C820   1.401       .  A
C819        H823   1.083       .  S
C820        N824   1.439       .  S
N822        H825   1.046       .  S
N822        H826   1.044       .  S
N824        H827   1.046       .  S
N824        H828   1.046   1_455  S
C833        C834   1.417       .  A
C833        C838   1.405   1_545  A
C834        C835   1.405       .  A
C834        N839   1.437       .  S
C835        C836   1.399       .  A
C835        H840   1.084       .  S
C836        C841   1.472       .  S
C836        C837   1.405   1_545  A
C837        C838   1.401       .  A
C837        N842   1.438       .  S
C838        H843   1.083       .  S
N839        H859   1.045       .  S
N839        H860   1.046       .  S
C841        C844   1.399       .  A
C841        C848   1.407       .  A
N842        H857   1.046       .  S
N842        H858   1.046       .  S
C844        C845   1.403       .  A
C844        H849   1.084       .  S
C845        C846   1.413       .  A
C845        N850   1.436       .  S
C846        C847   1.404       .  A
C847        C848   1.403       .  A
C847        H851   1.084       .  S
C848        N852   1.438       .  S
N850        H853   1.046       .  S
N850        H854   1.046       .  S
N852        H855   1.046       .  S
N852        H856   1.046   1_545  S
C861        C862   1.413   1_455  A
C861        C866   1.406       .  A
C862        C863   1.406   1_655  A
C862        N867   1.437       .  S
C863        C864   1.403       .  A
C863        H868   1.084   1_455  S
C864        C869   1.482       .  S
C864        C865   1.408       .  A
C865        C866   1.404       .  A
C865        N870   1.438       .  S
C866        H871   1.084       .  S
N867        H887   1.046       .  S
N867        H888   1.046       .  S
C869        C872   1.399       .  A
C869        C876   1.410       .  A
N870        H885   1.046       .  S
N870        H886   1.046       .  S
C872        C873   1.403       .  A
C872        H877   1.084       .  S
C873        C874   1.418       .  A
C873        N878   1.439       .  S
C874        C875   1.406       .  A
C875        C876   1.407       .  A
C875        H879   1.083       .  S
C876        N880   1.438       .  S
N878        H881   1.046       .  S
N878        H882   1.046       .  S
N880        H883   1.046       .  S
N880        H884   1.046       .  S
C889        C890   1.408       .  A
C889        C894   1.403       .  A
C890        C891   1.401       .  A
C890        N895   1.432       .  S
C891        C892   1.402       .  A
C891        H896   1.084       .  S
C892        C897   1.482       .  S
C892        C893   1.412       .  A
C893        C894   1.403       .  A
C893        N898   1.438       .  S
C894        H899   1.083       .  S
N895        H915   1.046       .  S
N895        H916   1.045       .  S
C897        C900   1.403       .  A
C897        C904   1.411       .  A
N898        H913   1.046       .  S
N898        H914   1.046       .  S
C900        C901   1.403       .  A
C900        H905   1.084       .  S
C901        C902   1.409       .  A
C901        N906   1.438       .  S
C902        C903   1.402       .  A
C903        C904   1.404       .  A
C903        H907   1.084       .  S
C904        N908   1.438       .  S
N906        H909   1.046       .  S
N906        H910   1.046       .  S
N908        H911   1.046       .  S
N908        H912   1.046       .  S
C917        C918   1.420       .  A
C917        C922   1.409       .  A
C918        C919   1.399       .  A
C918        N923   1.439       .  S
C919        C920   1.399       .  A
C919        H924   1.084       .  S
C920        C925   1.480       .  S
C920        C921   1.408       .  A
C921        C922   1.406       .  A
C921        N926   1.437       .  S
C922        H927   1.083       .  S
N923        H943   1.046       .  S
N923        H944   1.046       .  S
C925        C928   1.403       .  A
C925        C932   1.411       .  A
N926        H941   1.046       .  S
N926        H942   1.046       .  S
C928        C929   1.402       .  A
C928        H933   1.084       .  S
C929        C930   1.409       .  A
C929        N934   1.432       .  S
C930        C931   1.400       .  A
C931        C932   1.403       .  A
C931        H935   1.084       .  S
C932        N936   1.438       .  S
N934        H937   1.045       .  S
N934        H938   1.046       .  S
N936        H939   1.046       .  S
N936        H940   1.046       .  S
C945        C946   1.407       .  A
C945        C950   1.403       .  A
C946        C947   1.398       .  A
C946        N951   1.432       .  S
C947        C948   1.404       .  A
C947        H952   1.084       .  S
C948        C953   1.486       .  S
C948        C949   1.412       .  A
C949        C950   1.409       .  A
C949        N954   1.437       .  S
C950        H955   1.084       .  S
N951        H971   1.045       .  S
N951        H972   1.046       .  S
C953        C956   1.406       .  A
C953        C960   1.411       .  A
N954        H969   1.046       .  S
N954        H970   1.046       .  S
C956        C957   1.409       .  A
C956        H961   1.084       .  S
C957        C958   1.410       .  A
C957        N962   1.437       .  S
C958        C959   1.400       .  A
C959        C960   1.402       .  A
C959        H963   1.084       .  S
C960        N964   1.438       .  S
N962        H965   1.046       .  S
N962        H966   1.045       .  S
N964        H967   1.046       .  S
N964        H968   1.046       .  S
C973        C974   1.417       .  A
C973        C978   1.410       .  A
C974        C975   1.409       .  A
C974        N979   1.436       .  S
C975        C976   1.400       .  A
C975        H980   1.084       .  S
C976        C981   1.476       .  S
C976        C977   1.404       .  A
C977        C978   1.401       .  A
C977        N982   1.438       .  S
C978        H983   1.083       .  S
N979        H999   1.045       .  S
N979       H1000   1.046       .  S
C981        C984   1.402       .  A
C981        C988   1.408       .  A
N982        H997   1.046       .  S
N982        H998   1.046       .  S
C984        C985   1.401       .  A
C984        H989   1.084       .  S
C985        C986   1.406       .  A
C985        N990   1.432       .  S
C986        C987   1.404       .  A
C987        C988   1.406       .  A
C987        H991   1.084       .  S
C988        N992   1.437       .  S
N990        H993   1.045       .  S
N990        H994   1.045       .  S
N992        H995   1.046       .  S
N992        H996   1.045       .  S
C1001      C1002   1.407       .  A
C1001      C1006   1.406       .  A
C1002      C1003   1.402       .  A
C1002      N1007   1.432       .  S
C1003      C1004   1.402       .  A
C1003      H1008   1.084       .  S
C1004      C1009   1.479       .  S
C1004      C1005   1.411       .  A
C1005      C1006   1.401       .  A
C1005      N1010   1.432       .  S
C1006      H1011   1.084       .  S
N1007      H1027   1.045       .  S
N1007      H1028   1.045       .  S
C1009      C1012   1.402       .  A
C1009      C1016   1.404       .  A
N1010      H1025   1.045       .  S
N1010      H1026   1.045       .  S
C1012      C1013   1.412       .  A
C1012      H1017   1.083       .  S
C1013      C1014   1.419       .  A
C1013      N1018   1.437       .  S
C1014      C1015   1.411       .  A
C1015      C1016   1.399       .  A
C1015      H1019   1.083       .  S
C1016      N1020   1.439       .  S
N1018      H1021   1.046       .  S
N1018      H1022   1.046       .  S
N1020      H1023   1.046       .  S
N1020      H1024   1.046       .  S
C1029      C1030   1.406       .  A
C1029      C1034   1.401       .  A
C1030      C1031   1.400       .  A
C1030      N1035   1.432       .  S
C1031      C1032   1.403       .  A
C1031      H1036   1.084       .  S
C1032      C1037   1.478       .  S
C1032      C1033   1.409       .  A
C1033      C1034   1.405       .  A
C1033      N1038   1.437       .  S
C1034      H1039   1.084       .  S
N1035      H1055   1.046       .  S
N1035      H1056   1.046       .  S
C1037      C1040   1.403       .  A
C1037      C1044   1.407       .  A
N1038      H1053   1.046       .  S
N1038      H1054   1.046       .  S
C1040      C1041   1.402       .  A
C1040      H1045   1.084       .  S
C1041      C1042   1.416       .  A
C1041      N1046   1.439       .  S
C1042      C1043   1.403       .  A
C1043      C1044   1.401       .  A
C1043      H1047   1.084       .  S
C1044      N1048   1.438       .  S
N1046      H1049   1.046       .  S
N1046      H1050   1.042       .  S
N1048      H1051   1.046       .  S
N1048      H1052   1.046       .  S
C1057      C1058   1.416       .  A
C1057      C1062   1.407       .  A
C1058      C1059   1.408       .  A
C1058      N1063   1.437       .  S
C1059      C1060   1.400       .  A
C1059      H1064   1.084       .  S
C1060      C1065   1.473       .  S
C1060      C1061   1.406       .  A
C1061      C1062   1.401       .  A
C1061      N1066   1.439       .  S
C1062      H1067   1.083       .  S
N1063      H1083   1.046       .  S
N1063      H1084   1.046       .  S
C1065      C1068   1.400       .  A
C1065      C1072   1.415       .  A
N1066      H1081   1.045       .  S
N1066      H1082   1.045       .  S
C1068      C1069   1.398       .  A
C1068      H1073   1.084       .  S
C1069      C1070   1.405       .  A
C1069      N1074   1.431       .  S
C1070      C1071   1.404       .  A
C1071      C1072   1.401       .  A
C1071      H1075   1.084       .  S
C1072      N1076   1.438       .  S
N1074      H1077   1.046       .  S
N1074      H1078   1.045       .  S
N1076      H1079   1.046       .  S
N1076      H1080   1.044       .  S
C1085      C1086   1.407       .  A
C1085      C1090   1.400       .  A
C1086      C1087   1.399       .  A
C1086      N1091   1.438       .  S
C1087      C1088   1.401       .  A
C1087      H1092   1.084       .  S
C1088      C1093   1.476       .  S
C1088      C1089   1.412       .  A
C1089      C1090   1.404       .  A
C1089      N1094   1.438       .  S
C1090      H1095   1.084       .  S
N1091      H1111   1.046       .  S
N1091      H1112   1.046       .  S
C1093      C1096   1.401       .  A
C1093      C1100   1.410       .  A
N1094      H1109   1.046       .  S
N1094      H1110   1.046       .  S
C1096      C1097   1.402       .  A
C1096      H1101   1.084       .  S
C1097      C1098   1.410       .  A
C1097      N1102   1.436       .  S
C1098      C1099   1.403       .  A
C1099      C1100   1.400       .  A
C1099      H1103   1.084       .  S
C1100      N1104   1.438       .  S
N1102      H1105   1.045       .  S
N1102      H1106   1.043       .  S
N1104      H1107   1.046       .  S
N1104      H1108   1.045       .  S
C1113      C1114   1.413       .  A
C1113      C1118   1.405       .  A
C1114      C1115   1.404       .  A
C1114      N1119   1.438       .  S
C1115      C1116   1.404       .  A
C1115      H1120   1.084       .  S
C1116      C1121   1.487       .  S
C1116      C1117   1.410       .  A
C1117      C1118   1.407       .  A
C1117      N1122   1.437       .  S
C1118      H1123   1.084       .  S
N1119      H1139   1.043       .  S
N1119      H1140   1.045       .  S
C1121      C1124   1.406       .  A
C1121      C1128   1.412       .  A
N1122      H1137   1.046       .  S
N1122      H1138   1.045       .  S
C1124      C1125   1.409       .  A
C1124      H1129   1.083       .  S
C1125      C1126   1.408       .  A
C1125      N1130   1.437       .  S
C1126      C1127   1.400       .  A
C1127      C1128   1.402       .  A
C1127      H1131   1.084       .  S
C1128      N1132   1.438       .  S
N1130      H1133   1.046       .  S
N1130      H1134   1.046       .  S
N1132      H1135   1.046       .  S
N1132      H1136   1.046       .  S
C1141      C1142   1.418       .  A
C1141      C1146   1.405       .  A
C1142      C1143   1.397       .  A
C1142      N1147   1.438       .  S
C1143      C1144   1.398       .  A
C1143      H1148   1.084       .  S
C1144      C1149   1.471       .  S
C1144      C1145   1.406       .  A
C1145      C1146   1.403       .  A
C1145      N1150   1.437       .  S
C1146      H1151   1.084       .  S
N1147      H1167   1.038       .  S
N1147      H1168   1.046       .  S
C1149      C1152   1.399       .  A
C1149      C1156   1.405       .  A
N1150      H1165   1.046       .  S
N1150      H1166   1.046       .  S
C1152      C1153   1.407       .  A
C1152      H1157   1.084       .  S
C1153      C1154   1.417       .  A
C1153      N1158   1.436       .  S
C1154      C1155   1.408       .  A
C1155      C1156   1.400       .  A
C1155      H1159   1.083       .  S
C1156      N1160   1.439       .  S
N1158      H1161   1.046       .  S
N1158      H1162   1.046       .  S
N1160      H1163   1.046       .  S
N1160      H1164   1.045       .  S
C1169      C1170   1.419       .  A
C1169      C1174   1.411       .  A
C1170      C1171   1.409       .  A
C1170      N1175   1.437       .  S
C1171      C1172   1.402       .  A
C1171      H1176   1.084       .  S
C1172      C1177   1.485       .  S
C1172      C1173   1.406       .  A
C1173      C1174   1.404       .  A
C1173      N1178   1.438       .  S
C1174      H1179   1.083       .  S
N1175      H1195   1.046       .  S
N1175      H1196   1.046       .  S
C1177      C1180   1.401       .  A
C1177      C1184   1.408       .  A
N1178      H1193   1.046       .  S
N1178      H1194   1.045       .  S
C1180      C1181   1.410       .  A
C1180      H1185   1.084       .  S
C1181      C1182   1.421       .  A
C1181      N1186   1.436       .  S
C1182      C1183   1.407       .  A
C1183      C1184   1.404       .  A
C1183      H1187   1.083       .  S
C1184      N1188   1.438       .  S
N1186      H1189   1.046       .  S
N1186      H1190   1.045       .  S
N1188      H1191   1.045       .  S
N1188      H1192   1.045       .  S
C1197      C1198   1.416       .  A
C1197      C1202   1.410       .  A
C1198      C1199   1.412       .  A
C1198      N1203   1.436       .  S
C1199      C1200   1.403       .  A
C1199      H1204   1.084       .  S
C1200      C1205   1.480       .  S
C1200      C1201   1.405       .  A
C1201      C1202   1.400       .  A
C1201      N1206   1.438       .  S
C1202      H1207   1.083       .  S
N1203      H1223   1.046       .  S
N1203      H1224   1.046       .  S
C1205      C1208   1.400       .  A
C1205      C1212   1.407       .  A
N1206      H1221   1.046       .  S
N1206      H1222   1.045       .  S
C1208      C1209   1.401       .  A
C1208      H1213   1.084       .  S
C1209      C1210   1.418       .  A
C1209      N1214   1.438       .  S
C1210      C1211   1.407       .  A
C1211      C1212   1.405       .  A
C1211      H1215   1.084       .  S
C1212      N1216   1.437       .  S
N1214      H1217   1.046       .  S
N1214      H1218   1.039       .  S
N1216      H1219   1.046       .  S
N1216      H1220   1.046       .  S
C1225      C1226   1.416       .  A
C1225      C1230   1.402       .  A
C1226      C1227   1.397       .  A
C1226      N1231   1.438       .  S
C1227      C1228   1.403       .  A
C1227      H1232   1.084       .  S
C1228      C1233   1.480       .  S
C1228      C1229   1.409       .  A
C1229      C1230   1.405       .  A
C1229      N1234   1.437       .  S
C1230      H1235   1.084       .  S
N1231      H1251   1.043       .  S
N1231      H1252   1.046       .  S
C1233      C1236   1.404       .  A
C1233      C1240   1.410       .  A
N1234      H1249   1.046       .  S
N1234      H1250   1.046       .  S
C1236      C1237   1.406       .  A
C1236      H1241   1.084       .  S
C1237      C1238   1.409       .  A
C1237      N1242   1.437       .  S
C1238      C1239   1.401       .  A
C1239      C1240   1.401       .  A
C1239      H1243   1.084       .  S
C1240      N1244   1.438       .  S
N1242      H1245   1.046       .  S
N1242      H1246   1.045       .  S
N1244      H1247   1.046       .  S
N1244      H1248   1.046       .  S
