geometry optimzed in LAMMPS
_audit_creation_date              2020-11-30 
_audit_creation_method            'lammps2cif' 
_symmetry_space_group_name_H-M    'P1' 
_symmetry_Int_Tables_number       1 
_symmetry_cell_setting            triclinic 
loop_ 
_symmetry_equiv_pos_as_xyz 
  x,y,z 
_cell_length_a                    26.11143625 
_cell_length_b                    46.40405952924616 
_cell_length_c                    32.394776531530944 
_cell_angle_alpha                 88.26182305116593 
_cell_angle_beta                  89.0501547003502 
_cell_angle_gamma                 89.4112195355099 
loop_ 
_atom_site_label 
_atom_site_type_symbol 
_atom_site_fract_x 
_atom_site_fract_y 
_atom_site_fract_z 
_atom_site_charge 
O1          O  0.11879957  0.49634128  0.46927308    -0.73800
O2          O  0.47275371  0.49828554  0.46894396    -0.73800
O3          O  0.04869323  0.04335436  0.46407858    -0.73900
O4          O  0.54133996  0.45405829  0.47434103    -0.73900
O5          O  0.05995799  0.45569215  0.03894482    -0.73900
O6          O  0.56236965  0.04341272  0.03575573    -0.73900
O7          O  0.48939920  0.00286778  0.03178358    -0.73800
O8          O  0.13678615  0.99906826  0.03761222    -0.73900
Ni9        Ni  0.04565608  0.49820038  0.46698049     1.25400
Ni10       Ni  0.56215143  0.00189298  0.03509180     1.25400
C11         C  0.16087991  0.00110729  0.00290794     0.88400
C12         C  0.46660262  0.00533100  0.99722587     0.88300
C13         C  0.04782149  0.05616378  0.49862070     0.88300
C14         C  0.55203466  0.44020516  0.00842032     0.88500
O15         O  0.02182671  0.99767634  0.28691174    -0.73800
O16         O  0.37545530  0.99637850  0.28505629    -0.73800
O17         O  0.94334728  0.46038911  0.28296714    -0.73900
O18         O  0.44811494  0.03735715  0.28695578    -0.73900
O19         O  0.94842967  0.04154440  0.21764057    -0.73900
O20         O  0.44500415  0.46203158  0.21841768    -0.73900
O21         O  0.37321832  0.50427611  0.21507746    -0.73800
O22         O  0.02137488  0.50176927  0.21493879    -0.73900
Ni23       Ni  0.94879258  0.99810486  0.28928545     1.25400
Ni24       Ni  0.44651188  0.50322631  0.21046386     1.25400
C25         C  0.04364905  0.50035595  0.24991666     0.88400
C26         C  0.34975985  0.50542887  0.25007610     0.88300
C27         C  0.44238777  0.44926284  0.25405760     0.88300
C28         C  0.44757486  0.05350816  0.25416066     0.88500
O29         O  0.23548911  0.50048276  0.03491274    -0.73800
O30         O  0.38688074  0.00190421  0.03203344    -0.73800
O31         O  0.31263165  0.04312521  0.03889778    -0.73900
O32         O  0.31015104  0.46007176  0.03189772    -0.73900
O33         O  0.30007342  0.46186377  0.46694038    -0.73100
O34         O  0.29660671  0.04529421  0.46861360    -0.73900
O35         O  0.36906006  0.50412436  0.46886645    -0.73800
O36         O  0.22688905  0.00299218  0.46353937    -0.73900
Ni37       Ni  0.31395247  0.00135211  0.03608145     1.25400
Ni38       Ni  0.29593146  0.50285136  0.46654638     1.25400
C39         C  0.21666903  0.00211298  0.00190122     0.88400
C40         C  0.41067585  0.00527623  0.99742576     0.88300
C41         C  0.31008517  0.05902943  0.00584805     0.88300
C42         C  0.31230723  0.44742773  0.99712830     0.88500
O43         O  0.12238994  0.49874895  0.28583177    -0.73800
O44         O  0.27177805  0.99718331  0.28591075    -0.73800
O45         O  0.19592263  0.03782734  0.28794494    -0.73900
O46         O  0.19953750  0.45859616  0.28743936    -0.73900
O47         O  0.20191960  0.45973359  0.21907506    -0.73900
O48         O  0.19627063  0.04036157  0.21967500    -0.73900
O49         O  0.27015953  0.50304269  0.21730625    -0.73800
O50         O  0.12657521  0.99817802  0.21788092    -0.73900
Ni51       Ni  0.19858187  0.99627480  0.28883261     1.25400
Ni52       Ni  0.19753432  0.50096162  0.21528272     1.25400
C53         C  0.09955483  0.49924326  0.25106390     0.88400
C54         C  0.29377700  0.50357551  0.25145452     0.88300
C55         C  0.19422887  0.05302005  0.25427062     0.88300
C56         C  0.20193643  0.44523027  0.25341287     0.88500
N57         N  0.50759927  0.36974120  0.46707883    -0.36000
N58         N  0.48560829  0.30750650  0.46692254    -0.56600
N59         N  0.48710302  0.30597641  0.05600596    -0.36000
N60         N  0.50826669  0.36780210  0.05501262    -0.56600
C61         C  0.51540781  0.36374309  0.42691748     0.27600
C62         C  0.53443634  0.39375875  0.47439775     0.27600
C63         C  0.46777760  0.28021365  0.04595802     0.27600
C64         C  0.46353216  0.31387340  0.09144929     0.27600
C65         C  0.50334511  0.31338444  0.42845467     0.36200
C66         C  0.49748016  0.27961828  0.47526812     0.36200
C67         C  0.53361308  0.39309558  0.04964776     0.36200
C68         C  0.50753939  0.36078936  0.09595290     0.36200
C69         C  0.54895011  0.38322842  0.40850771    -0.21300
C70         C  0.56130266  0.40213583  0.43855875    -0.21300
C71         C  0.43132758  0.27144003  0.07468304    -0.21300
C72         C  0.42734279  0.29306653  0.10264335    -0.21300
C73         C  0.52932036  0.28973348  0.41298402    -0.22300
C74         C  0.52496107  0.26801387  0.44270617    -0.22300
C75         C  0.55110622  0.40155243  0.08763257    -0.22300
C76         C  0.53493212  0.38114515  0.11667902    -0.22300
C77         C  0.49475087  0.33994917  0.40758571    -0.17700
C78         C  0.54203146  0.40793607  0.01069206    -0.17700
C79         C  0.47770029  0.33805642  0.11472651    -0.17700
C80         C  0.48364976  0.26445645  0.01158873    -0.17700
H81         H  0.56405717  0.38320699  0.37718081     0.15200
H82         H  0.58864036  0.41939138  0.43457067     0.15200
H83         H  0.40880993  0.25199361  0.07461628     0.15200
H84         H  0.39981461  0.29306697  0.12761423     0.15200
H85         H  0.54833656  0.28823671  0.38317056     0.13500
H86         H  0.53977567  0.24624786  0.44045638     0.13500
H87         H  0.57487425  0.41973608  0.09410434     0.13500
H88         H  0.54245092  0.38138406  0.14941564     0.13500
H89         H  0.48087960  0.35954962  0.48654800     0.26800
H90         H  0.51841992  0.31599354  0.04143799     0.26800
N91         N  0.45149154  0.37332254  0.21548551    -0.36000
N92         N  0.45918148  0.37397201  0.30284287    -0.56600
N93         N  0.47741467  0.30896561  0.30461013    -0.36000
N94         N  0.48012328  0.29704457  0.20175323    -0.56600
C95         C  0.43656032  0.40100701  0.22030428     0.27600
C96         C  0.44614865  0.36722309  0.17541666     0.27600
C97         C  0.46349231  0.31629859  0.34328070     0.27600
C98         C  0.46436018  0.28093345  0.30061746     0.27600
C99         C  0.44553975  0.40211053  0.29696698     0.36200
C100        C  0.46325048  0.36882297  0.34398372     0.36200
C101        C  0.44679958  0.31634439  0.18464075     0.36200
C102        C  0.45138424  0.28033436  0.22821349     0.36200
C103        C  0.41881768  0.41182185  0.18234490    -0.21300
C104        C  0.42633189  0.39068561  0.15388920    -0.21300
C105        C  0.43773123  0.29364103  0.36265917    -0.21300
C106        C  0.43914390  0.27116070  0.33637257    -0.21300
C107        C  0.43724105  0.41417232  0.33530630    -0.22300
C108        C  0.44799581  0.39321146  0.36469328    -0.22300
C109        C  0.39806478  0.31277108  0.20135092    -0.22300
C110        C  0.40075399  0.28955265  0.22804949    -0.22300
C111        C  0.44049828  0.41665900  0.25746591    -0.17700
C112        C  0.46019488  0.34043867  0.15941950    -0.17700
C113        C  0.47083030  0.26588470  0.26337216    -0.17700
C114        C  0.47738248  0.34184606  0.36284346    -0.17700
H115        H  0.40074370  0.43237440  0.17527615     0.15200
H116        H  0.41727757  0.39213945  0.12144435     0.15200
H117        H  0.42035201  0.29307051  0.39315045     0.15200
H118        H  0.42017000  0.25106913  0.34313285     0.15200
H119        H  0.42184040  0.43510837  0.34252873     0.13500
H120        H  0.44214417  0.39550192  0.39755053     0.13500
H121        H  0.36453757  0.32609218  0.19537684     0.13500
H122        H  0.37027319  0.28208219  0.24854109     0.13500
H123        H  0.46958205  0.35937889  0.23642252     0.26800
H124        H  0.49829809  0.32155398  0.28316058     0.26800
N125        N  0.29054180  0.37285507  0.45413116    -0.36000
N126        N  0.28525453  0.37328139  0.04071811    -0.56600
N127        N  0.26421424  0.31019974  0.04350729    -0.36000
N128        N  0.26338750  0.29710534  0.43790841    -0.56600
C129        C  0.30342269  0.40055999  0.46000072     0.27600
C130        C  0.29378795  0.36790346  0.41322543     0.27600
C131        C  0.27293235  0.31586022  0.08338788     0.27600
C132        C  0.27543703  0.28190128  0.03855781     0.27600
C133        C  0.30886418  0.39894259  0.03414251     0.36200
C134        C  0.28493238  0.36777239  0.08197134     0.36200
C135        C  0.29647832  0.31678648  0.42123329     0.36200
C136        C  0.28977341  0.28368896  0.46889961     0.36200
C137        C  0.31706904  0.41293238  0.42150464    -0.21300
C138        C  0.31050211  0.39238501  0.39213111    -0.21300
C139        C  0.29264244  0.29132046  0.10321999    -0.21300
C140        C  0.29429613  0.26991208  0.07493092    -0.21300
C141        C  0.32663503  0.40850439  0.07151747    -0.22300
C142        C  0.31089874  0.38909509  0.10158007    -0.22300
C143        C  0.34286067  0.31563389  0.44143817    -0.22300
C144        C  0.33856442  0.29478868  0.47159970    -0.22300
C145        C  0.31094477  0.41487583  0.99563109    -0.17700
C146        C  0.28228941  0.34087669  0.39646282    -0.17700
C147        C  0.27307939  0.26813576  0.00022263    -0.17700
C148        C  0.26472252  0.34276890  0.10208560    -0.17700
H149        H  0.33294020  0.43392951  0.41451676     0.15200
H150        H  0.31896016  0.39485630  0.35940033     0.15200
H151        H  0.30644427  0.28926554  0.13447301     0.15200
H152        H  0.31003960  0.24848978  0.08012341     0.15200
H153        H  0.35026655  0.42693978  0.07701735     0.13500
H154        H  0.31986584  0.38994527  0.13398418     0.13500
H155        H  0.37488541  0.33009641  0.43678346     0.13500
H156        H  0.36650423  0.28973790  0.49510482     0.13500
H157        H  0.27682119  0.35788736  0.47587223     0.26800
H158        H  0.24834707  0.32424757  0.02133631     0.26800
N159        N  0.23796721  0.37421773  0.20675737    -0.36000
N160        N  0.23613629  0.37035611  0.29511975    -0.56600
N161        N  0.24582430  0.30782757  0.29385595    -0.36000
N162        N  0.24724484  0.30973085  0.20520700    -0.56600
C163        C  0.21332598  0.39940325  0.21419374     0.27600
C164        C  0.23373553  0.36929445  0.16606375     0.27600
C165        C  0.27125328  0.31349329  0.32879862     0.27600
C166        C  0.25955128  0.28110250  0.28187615     0.27600
C167        C  0.21283158  0.39647759  0.29112389     0.36200
C168        C  0.23352109  0.36208841  0.33550966     0.36200
C169        C  0.23075173  0.31874386  0.16797850     0.36200
C170        C  0.22356789  0.28450097  0.21377949     0.36200
C171        C  0.19186765  0.40980277  0.17743718    -0.21300
C172        C  0.20529065  0.39096424  0.14710338    -0.21300
C173        C  0.30317695  0.29000459  0.33813896    -0.21300
C174        C  0.29498196  0.26942507  0.30902539    -0.21300
C175        C  0.19312371  0.40425610  0.32936301    -0.22300
C176        C  0.20578833  0.38242914  0.35721540    -0.22300
C177        C  0.19464721  0.30026838  0.15327685    -0.22300
C178        C  0.18980185  0.27842778  0.18254883    -0.22300
C179        C  0.20879211  0.41283757  0.25319048    -0.17700
C180        C  0.24877502  0.34355192  0.14735300    -0.17700
C181        C  0.23651762  0.26712044  0.24855243    -0.17700
C182        C  0.26183318  0.33841857  0.35296729    -0.17700
H183        H  0.16600949  0.42790594  0.17287468     0.15200
H184        H  0.19239766  0.39195021  0.11549994     0.15200
H185        H  0.32959207  0.28727019  0.36314295     0.15200
H186        H  0.31307699  0.24838626  0.30793704     0.15200
H187        H  0.17025511  0.42298852  0.33675287     0.13500
H188        H  0.19630453  0.38183685  0.38987983     0.13500
H189        H  0.17395606  0.30251330  0.12465903     0.13500
H190        H  0.16322804  0.26091469  0.18083435     0.13500
H191        H  0.25998888  0.36160626  0.22693234     0.26800
H192        H  0.21611867  0.32010527  0.28093059     0.26800
N193        N  0.03931509  0.12979190  0.05048949    -0.36000
N194        N  0.00179553  0.20275527  0.06252134    -0.56600
N195        N  0.98174043  0.19187686  0.46341054    -0.36000
N196        N  0.00544199  0.12965858  0.45984829    -0.56600
C197        C  0.03929179  0.13482872  0.09131979     0.27600
C198        C  0.05426796  0.10210505  0.04538364     0.27600
C199        C  0.96312819  0.21795239  0.47465705     0.27600
C200        C  0.95918510  0.18510786  0.42757033     0.27600
C201        C  0.03556282  0.18594529  0.08395398     0.36200
C202        C  0.03097630  0.21926872  0.03610552     0.36200
C203        C  0.03476951  0.10533344  0.46300431     0.36200
C204        C  0.00518384  0.13839590  0.41950534     0.36200
C205        C  0.05727358  0.11088654  0.11292809    -0.21300
C206        C  0.06723102  0.09030669  0.08411220    -0.21300
C207        C  0.92752112  0.22774311  0.44659288    -0.21300
C208        C  0.92434015  0.20697188  0.41734307    -0.21300
C209        C  0.08494236  0.19053955  0.06918491    -0.22300
C210        C  0.08214214  0.21197746  0.03948239    -0.22300
C211        C  0.05406831  0.09889196  0.42416611    -0.22300
C212        C  0.03589356  0.11984630  0.39690153    -0.22300
C213        C  0.02278887  0.16112014  0.10798314    -0.17700
C214        C  0.04317318  0.08863348  0.50035088    -0.17700
C215        C  0.97349560  0.16115503  0.40279317    -0.17700
C216        C  0.98121981  0.23393671  0.50780828    -0.17700
H217        H  0.06399338  0.10871806  0.14576018     0.15200
H218        H  0.08427504  0.06964651  0.09190387     0.15200
H219        H  0.90688991  0.24803794  0.44679544     0.15200
H220        H  0.89940061  0.20868725  0.39139516     0.15200
H221        H  0.11870627  0.17806710  0.07734284     0.13500
H222        H  0.11321867  0.21938872  0.01947176     0.13500
H223        H  0.08009942  0.08158199  0.41620927     0.13500
H224        H  0.04437487  0.12120150  0.36409235     0.13500
H225        H  0.02727085  0.14485535  0.02825282     0.26800
H226        H  0.01237250  0.18097891  0.47714165     0.26800
N227        N  0.95278563  0.12843594  0.29944480    -0.36000
N228        N  0.97737315  0.12977431  0.21108234    -0.56600
N229        N  0.98267445  0.19314490  0.21060546    -0.36000
N230        N  0.97523307  0.20172384  0.31568065    -0.56600
C231        C  0.94292941  0.10051372  0.29244122     0.27600
C232        C  0.94649128  0.13258088  0.34034650     0.27600
C233        C  0.01044188  0.18723219  0.17629456     0.27600
C234        C  0.99476494  0.22001709  0.22192546     0.27600
C235        C  0.95351903  0.10388198  0.21527475     0.36200
C236        C  0.97625748  0.13807099  0.17046798     0.36200
C237        C  0.94118041  0.18341218  0.33373268     0.36200
C238        C  0.94864638  0.21652461  0.28617408     0.36200
C239        C  0.92697626  0.08747634  0.33004009    -0.21300
C240        C  0.93060215  0.10757725  0.36021634    -0.21300
C241        C  0.04240076  0.21051881  0.16702677    -0.21300
C242        C  0.03177492  0.23134805  0.19546733    -0.21300
C243        C  0.93621507  0.09610217  0.17690521    -0.22300
C244        C  0.95006559  0.11770215  0.14889169    -0.22300
C245        C  0.89415240  0.18582366  0.31431055    -0.22300
C246        C  0.89874367  0.20721319  0.28443544    -0.22300
C247        C  0.94745502  0.08716064  0.25313777    -0.17700
C248        C  0.95501362  0.15923495  0.35846667    -0.17700
C249        C  0.97172163  0.23395879  0.25551482    -0.17700
C250        C  0.00309594  0.16232156  0.15247674    -0.17700
H251        H  0.91160325  0.06626715  0.33611821     0.15200
H252        H  0.92076208  0.10449825  0.39261012     0.15200
H253        H  0.07163103  0.21260871  0.14333242     0.15200
H254        H  0.05055686  0.25192623  0.19730637     0.15200
H255        H  0.91387501  0.07748863  0.16969565     0.13500
H256        H  0.94186111  0.11828132  0.11623727     0.13500
H257        H  0.86106384  0.17227068  0.31982706     0.13500
H258        H  0.87029116  0.21367725  0.26196384     0.13500
H259        H  0.96599955  0.14417838  0.27856849     0.26800
H260        H  0.95327727  0.18063324  0.22360127     0.26800
N261        N  0.27692233  0.13286217  0.04948257    -0.36000
N262        N  0.26122763  0.13045734  0.45915793    -0.56600
N263        N  0.24211955  0.19406163  0.45546744    -0.36000
N264        N  0.26455993  0.19490875  0.04649147    -0.56600
C265        C  0.29938632  0.10652318  0.04481100     0.27600
C266        C  0.27875280  0.13966759  0.08982323     0.27600
C267        C  0.25469154  0.18640192  0.41694262     0.27600
C268        C  0.26415531  0.21986616  0.46184594     0.27600
C269        C  0.28677974  0.10537103  0.46531818     0.36200
C270        C  0.26190290  0.13592867  0.41808426     0.36200
C271        C  0.23996769  0.18836964  0.08261460     0.36200
C272        C  0.24531816  0.22054411  0.03273425     0.36200
C273        C  0.31710118  0.09680982  0.08304386    -0.21300
C274        C  0.30454032  0.11771367  0.11118554    -0.21300
C275        C  0.28650781  0.20672148  0.39840825    -0.21300
C276        C  0.29246142  0.22797448  0.42659281    -0.21300
C277        C  0.30774112  0.09648357  0.42788043    -0.22300
C278        C  0.29157232  0.11579557  0.39795742    -0.22300
C279        C  0.20433840  0.21005780  0.09100871    -0.22300
C280        C  0.20791400  0.23034496  0.05949056    -0.22300
C281        C  0.30457531  0.09160080  0.00674444    -0.17700
C282        C  0.25155764  0.16339666  0.10762351    -0.17700
C283        C  0.26469920  0.23579539  0.99767567    -0.17700
C284        C  0.23981073  0.16052825  0.39944482    -0.17700
H285        H  0.33818177  0.07718555  0.09022922     0.15200
H286        H  0.31280499  0.11657907  0.14382942     0.15200
H287        H  0.30401675  0.20608064  0.36794643     0.15200
H288        H  0.31650331  0.24639291  0.42089774     0.15200
H289        H  0.33389573  0.07877124  0.42231223     0.13500
H290        H  0.30210709  0.11573740  0.36549388     0.13500
H291        H  0.17651337  0.21131044  0.11574704     0.13500
H292        H  0.18537352  0.24998047  0.05639612     0.13500
H293        H  0.25520051  0.14422630  0.02784124     0.26800
H294        H  0.21639537  0.18287860  0.47492730     0.26800
N295        N  0.21842338  0.12712188  0.20977427    -0.36000
N296        N  0.20463597  0.12860454  0.29711748    -0.56600
N297        N  0.22423758  0.19221007  0.29532977    -0.36000
N298        N  0.24427466  0.20496210  0.19086463    -0.56600
C299        C  0.19663988  0.10106935  0.21596573     0.27600
C300        C  0.21714690  0.13372886  0.16896658     0.27600
C301        C  0.20937224  0.18623643  0.33450959     0.27600
C302        C  0.21726466  0.22085386  0.28876327     0.27600
C303        C  0.19276765  0.10039325  0.29301216     0.36200
C304        C  0.20457857  0.13369954  0.33806394     0.36200
C305        C  0.21488015  0.18425366  0.17475440     0.36200
C306        C  0.21197453  0.21973671  0.21615438     0.36200
C307        C  0.17996079  0.09160646  0.17795506    -0.21300
C308        C  0.19358225  0.11212910  0.14824285    -0.21300
C309        C  0.18928603  0.21097040  0.35207486    -0.21300
C310        C  0.19497156  0.23305650  0.32321711    -0.21300
C311        C  0.18050168  0.08845281  0.33177972    -0.22300
C312        C  0.18787939  0.10943544  0.35998559    -0.22300
C313        C  0.16509197  0.18571860  0.18998688    -0.22300
C314        C  0.16317091  0.20821132  0.21578037    -0.22300
C315        C  0.19327119  0.08562958  0.25470646    -0.17700
C316        C  0.23273452  0.16059523  0.15216298    -0.17700
C317        C  0.22763476  0.23495163  0.25059406    -0.17700
C318        C  0.21963071  0.15996383  0.35577724    -0.17700
H319        H  0.15776260  0.07271315  0.17190972     0.15200
H320        H  0.18444637  0.11199900  0.11577743     0.15200
H321        H  0.17319055  0.21298652  0.38287035     0.15200
H322        H  0.18267387  0.25518847  0.32680912     0.15200
H323        H  0.16579178  0.06733935  0.33976946     0.13500
H324        H  0.18064420  0.10715109  0.39290241     0.13500
H325        H  0.13417000  0.17103815  0.18434722     0.13500
H326        H  0.13095358  0.21386793  0.23550721     0.13500
H327        H  0.23747197  0.13936392  0.23096959     0.26800
H328        H  0.24283608  0.17821096  0.27526511     0.26800
O329        O  0.13217812  0.49779398  0.96736430    -0.73800
O330        O  0.48690829  0.49760999  0.96676277    -0.73800
O331        O  0.06244846  0.04282395  0.97178280    -0.73900
O332        O  0.55515690  0.45336712  0.97300793    -0.73900
O333        O  0.04089590  0.45644588  0.54028911    -0.73900
O334        O  0.54518871  0.04052958  0.53748745    -0.73900
O335        O  0.47462610  0.99870362  0.53435824    -0.73800
O336        O  0.12159005  0.99976037  0.53268812    -0.73900
Ni337      Ni  0.05904241  0.49819188  0.96638106     1.25400
Ni338      Ni  0.54759657  0.99904977  0.53768337     1.25400
C339        C  0.14593767  0.00068249  0.49805731     0.88400
C340        C  0.45195968  0.00142590  0.49971604     0.88300
C341        C  0.06173848  0.05537997  0.00635491     0.88300
C342        C  0.54077410  0.44094342  0.50985787     0.88500
O343        O  0.01426663  0.99722504  0.78836888    -0.73800
O344        O  0.36770028  0.99468013  0.78647063    -0.73800
O345        O  0.94274013  0.45950279  0.79395254    -0.73900
O346        O  0.44035270  0.03548360  0.78955915    -0.73900
O347        O  0.94331053  0.04152462  0.71864328    -0.73900
O348        O  0.44247271  0.46110658  0.72072315    -0.73900
O349        O  0.37119117  0.50360220  0.71590132    -0.73800
O350        O  0.01814323  0.50029110  0.72218499    -0.73900
Ni351      Ni  0.94119285  0.99826679  0.79091932     1.25400
Ni352      Ni  0.44469360  0.50229420  0.71349871     1.25400
C353        C  0.04140974  0.49947675  0.75662670     0.88400
C354        C  0.34673521  0.50482962  0.75044930     0.88300
C355        C  0.43815096  0.44815002  0.75610301     0.88300
C356        C  0.44206639  0.05180634  0.75702140     0.88500
O357        O  0.22153607  0.49938314  0.53782567    -0.73800
O358        O  0.37114491  0.00055628  0.53335738    -0.73800
O359        O  0.29638415  0.04202721  0.53692521    -0.73900
O360        O  0.29753666  0.45938291  0.53521332    -0.73900
O361        O  0.31253149  0.46266310  0.96369933    -0.73100
O362        O  0.30887007  0.04701269  0.97076266    -0.73900
O363        O  0.38292543  0.50437758  0.96575813    -0.73800
O364        O  0.24022282  0.00422482  0.96696571    -0.73900
Ni365      Ni  0.29812103  0.00025695  0.53512065     1.25400
Ni366      Ni  0.30964676  0.50372906  0.96346084     1.25400
C367        C  0.20197460  0.00115173  0.49788904     0.88400
C368        C  0.39617347  0.00252757  0.49916340     0.88300
C369        C  0.29564211  0.05762400  0.50352653     0.88300
C370        C  0.30119093  0.44677207  0.50049655     0.88500
O371        O  0.12129048  0.49772459  0.79033934    -0.73800
O372        O  0.26438129  0.99492634  0.78679023    -0.73800
O373        O  0.18974163  0.03587065  0.78935981    -0.73900
O374        O  0.19847810  0.45773203  0.78934597    -0.73900
O375        O  0.19861538  0.45893925  0.72101008    -0.73900
O376        O  0.19146472  0.03889978  0.72119250    -0.73900
O377        O  0.26662888  0.50249195  0.71775533    -0.73800
O378        O  0.11900405  0.99792214  0.71912363    -0.73900
Ni379      Ni  0.19117919  0.99439652  0.78977138     1.25400
Ni380      Ni  0.19376569  0.50011868  0.71753113     1.25400
C381        C  0.09719244  0.49823456  0.75624681     0.88400
C382        C  0.29095079  0.50304368  0.75159906     0.88300
C383        C  0.18980653  0.05132922  0.75592207     0.88300
C384        C  0.19967431  0.44439406  0.75524790     0.88500
N385        N  0.50960214  0.36950927  0.96659620    -0.36000
N386        N  0.48867529  0.30712548  0.96772911    -0.56600
N387        N  0.48230602  0.30574449  0.55589055    -0.36000
N388        N  0.50298994  0.36748943  0.55578246    -0.56600
C389        C  0.51436628  0.36331692  0.92617763     0.27600
C390        C  0.53807289  0.39322549  0.97275896     0.27600
C391        C  0.46233017  0.28033452  0.54497429     0.27600
C392        C  0.45858861  0.31342265  0.59140266     0.27600
C393        C  0.50340261  0.31280247  0.92848312     0.36200
C394        C  0.50058554  0.27921172  0.97560696     0.36200
C395        C  0.52671383  0.39331635  0.55086871     0.36200
C396        C  0.50281893  0.36015709  0.59663900     0.36200
C397        C  0.54727645  0.38243219  0.90630218    -0.21300
C398        C  0.56269479  0.40113592  0.93566877    -0.21300
C399        C  0.42513212  0.27163246  0.57312368    -0.21300
C400        C  0.42162833  0.29286780  0.60174918    -0.21300
C401        C  0.52774907  0.28898858  0.91190550    -0.22300
C402        C  0.52533643  0.26736781  0.94189387    -0.22300
C403        C  0.54388693  0.40181405  0.58887833    -0.22300
C404        C  0.52950322  0.38074009  0.61755155    -0.22300
C405        C  0.49287663  0.33920673  0.90791242    -0.17700
C406        C  0.53447468  0.40852027  0.51221739    -0.17700
C407        C  0.47297857  0.33732108  0.61523112    -0.17700
C408        C  0.47881509  0.26468383  0.51065185    -0.17700
H409        H  0.56056771  0.38205634  0.87448900     0.15200
H410        H  0.59104687  0.41768659  0.93024616     0.15200
H411        H  0.40193335  0.25246982  0.57232345     0.15200
H412        H  0.39379310  0.29283830  0.62648236     0.15200
H413        H  0.54414544  0.28726342  0.88116260     0.13500
H414        H  0.53925132  0.24547210  0.93895095     0.13500
H415        H  0.56636633  0.42048675  0.59550823     0.13500
H416        H  0.53716876  0.38087936  0.65026733     0.13500
H417        H  0.48402051  0.35942118  0.98714536     0.26800
H418        H  0.51409288  0.31563414  0.54182667     0.26800
N419        N  0.44625111  0.37220368  0.71654062    -0.36000
N420        N  0.45500629  0.37283735  0.80397346    -0.56600
N421        N  0.46790964  0.30804862  0.80541524    -0.36000
N422        N  0.47263718  0.29611647  0.70318871    -0.56600
C423        C  0.43241026  0.40008749  0.72148339     0.27600
C424        C  0.44154108  0.36635848  0.67628968     0.27600
C425        C  0.45769013  0.31509803  0.84490346     0.27600
C426        C  0.45439663  0.28006296  0.80173969     0.27600
C427        C  0.44050976  0.40082964  0.79833192     0.36200
C428        C  0.45886213  0.36757111  0.84507135     0.36200
C429        C  0.44032469  0.31535093  0.68462901     0.36200
C430        C  0.44256523  0.27958918  0.72893884     0.36200
C431        C  0.41587618  0.41129351  0.68338032    -0.21300
C432        C  0.42288226  0.39017333  0.65482369    -0.21300
C433        C  0.43356606  0.29225681  0.86532674    -0.21300
C434        C  0.43223751  0.27004072  0.83862715    -0.21300
C435        C  0.43153826  0.41264421  0.83677635    -0.22300
C436        C  0.44292367  0.39169984  0.86602202    -0.22300
C437        C  0.39088534  0.31204693  0.70003552    -0.22300
C438        C  0.39213070  0.28902611  0.72723948    -0.22300
C439        C  0.43589169  0.41553790  0.75895552    -0.17700
C440        C  0.45516261  0.33952250  0.66000659    -0.17700
C441        C  0.46028119  0.26483999  0.76456306    -0.17700
C442        C  0.47326685  0.34067144  0.86377799    -0.17700
H443        H  0.39881175  0.43210507  0.67625420     0.15200
H444        H  0.41426658  0.39191545  0.62230020     0.15200
H445        H  0.41950344  0.29118889  0.89680880     0.15200
H446        H  0.41409182  0.24981802  0.84623140     0.15200
H447        H  0.41536142  0.43338039  0.84412179     0.13500
H448        H  0.43704941  0.39372019  0.89893919     0.13500
H449        H  0.35781948  0.32547256  0.69293577     0.13500
H450        H  0.36063789  0.28178101  0.74689377     0.13500
H451        H  0.46298344  0.35786043  0.73760927     0.26800
H452        H  0.48763602  0.32059445  0.78323707     0.26800
N453        N  0.29544338  0.37313745  0.95143536    -0.36000
N454        N  0.28220346  0.37180489  0.54371783    -0.56600
N455        N  0.26294929  0.30910163  0.54580889    -0.36000
N456        N  0.26789394  0.29674192  0.93622399    -0.56600
C457        C  0.30771449  0.40105326  0.95650720     0.27600
C458        C  0.29550487  0.36792641  0.91052072     0.27600
C459        C  0.27076969  0.31414440  0.58595052     0.27600
C460        C  0.27144762  0.28062694  0.54042588     0.27600
C461        C  0.30288088  0.39826803  0.53745776     0.36200
C462        C  0.28226031  0.36616509  0.58494173     0.36200
C463        C  0.29979028  0.31694720  0.91958627     0.36200
C464        C  0.29485640  0.28408538  0.96738759     0.36200
C465        C  0.31749390  0.41335505  0.91717127    -0.21300
C466        C  0.30939428  0.39253006  0.88844118    -0.21300
C467        C  0.28753602  0.28884852  0.60572754    -0.21300
C468        C  0.28779991  0.26763187  0.57697522    -0.21300
C469        C  0.31968836  0.40826049  0.57486270    -0.22300
C470        C  0.30630239  0.38813697  0.60471313    -0.22300
C471        C  0.34614648  0.31676228  0.93990037    -0.22300
C472        C  0.34294776  0.29601217  0.97022503    -0.22300
C473        C  0.30356471  0.41430832  0.49912349    -0.17700
C474        C  0.28388941  0.34053092  0.89469538    -0.17700
C475        C  0.26757247  0.26755610  0.50173245    -0.17700
C476        C  0.26246993  0.34096257  0.60491037    -0.17700
H477        H  0.33162790  0.43449561  0.90875334     0.15200
H478        H  0.31503190  0.39495060  0.85534981     0.15200
H479        H  0.29955874  0.28603404  0.63740738     0.15200
H480        H  0.30060929  0.24559253  0.58209845     0.15200
H481        H  0.34112970  0.42751398  0.58047741     0.13500
H482        H  0.31503653  0.38917583  0.63714478     0.13500
H483        H  0.37725811  0.33184900  0.93531080     0.13500
H484        H  0.37086534  0.29168676  0.99402740     0.13500
H485        H  0.28498979  0.35788786  0.97402215     0.26800
H486        H  0.24830464  0.32363547  0.52370825     0.26800
N487        N  0.23341197  0.37274276  0.70862478    -0.36000
N488        N  0.23101694  0.36889396  0.79613131    -0.56600
N489        N  0.23592737  0.30568396  0.79589842    -0.36000
N490        N  0.23688561  0.30813842  0.70765416    -0.56600
C491        C  0.21012582  0.39841014  0.71578282     0.27600
C492        C  0.22911550  0.36767126  0.66802959     0.27600
C493        C  0.26414716  0.31150961  0.82947539     0.27600
C494        C  0.24837831  0.27877939  0.78359457     0.27600
C495        C  0.20949424  0.39548387  0.79263822     0.36200
C496        C  0.22940793  0.36068232  0.83647521     0.36200
C497        C  0.22373819  0.31703274  0.66945104     0.36200
C498        C  0.21344516  0.28263682  0.71496201     0.36200
C499        C  0.18954449  0.40903190  0.67879460    -0.21300
C500        C  0.20193009  0.38974411  0.64875127    -0.21300
C501        C  0.29603272  0.28784531  0.83772364    -0.21300
C502        C  0.28537956  0.26712045  0.80935715    -0.21300
C503        C  0.19157213  0.40359724  0.83128273    -0.22300
C504        C  0.20374181  0.38148067  0.85880985    -0.22300
C505        C  0.18945912  0.29826066  0.65284471    -0.22300
C506        C  0.18279002  0.27629904  0.68179148    -0.22300
C507        C  0.20594191  0.41195899  0.75479726    -0.17700
C508        C  0.24378931  0.34173585  0.64956723    -0.17700
C509        C  0.22515902  0.26500439  0.74993753    -0.17700
C510        C  0.25833722  0.33709671  0.85310904    -0.17700
H511        H  0.16483604  0.42757714  0.67379093     0.15200
H512        H  0.18948829  0.39087708  0.61702824     0.15200
H513        H  0.32467382  0.28532982  0.86110450     0.15200
H514        H  0.30375713  0.24621796  0.80726953     0.15200
H515        H  0.17043509  0.42280463  0.83931680     0.13500
H516        H  0.19583293  0.38111534  0.89172784     0.13500
H517        H  0.17156849  0.30019843  0.62296635     0.13500
H518        H  0.15756653  0.25833769  0.67825132     0.13500
H519        H  0.25499875  0.35987032  0.72873600     0.26800
H520        H  0.20627684  0.31835627  0.78364529     0.26800
N521        N  0.02920572  0.12916723  0.54699413    -0.36000
N522        N  0.98796738  0.20233176  0.56758570    -0.56600
N523        N  0.00233163  0.19090323  0.95994331    -0.36000
N524        N  0.02128310  0.12737488  0.96253248    -0.56600
C525        C  0.03305678  0.13359310  0.58778008     0.27600
C526        C  0.04362479  0.10176368  0.53988857     0.27600
C527        C  0.01746821  0.21852272  0.96333391     0.27600
C528        C  0.01190899  0.18376167  0.92045835     0.27600
C529        C  0.02595210  0.18444639  0.58006187     0.36200
C530        C  0.00966092  0.22013806  0.53855147     0.36200
C531        C  0.04934198  0.10288984  0.96806486     0.36200
C532        C  0.01830218  0.13253447  0.92126004     0.36200
C533        C  0.05174319  0.10920151  0.60772292    -0.21300
C534        C  0.05949418  0.08922582  0.57755382    -0.21300
C535        C  0.03953512  0.22811708  0.92600279    -0.21300
C536        C  0.03749282  0.20581144  0.89963581    -0.21300
C537        C  0.07092315  0.19018938  0.55813724    -0.22300
C538        C  0.06084261  0.21343496  0.53244845    -0.22300
C539        C  0.06677014  0.09372699  0.92974446    -0.22300
C540        C  0.04679704  0.11222241  0.90035720    -0.22300
C541        C  0.01871765  0.15978624  0.60552773    -0.17700
C542        C  0.05655083  0.08779564  0.00680910    -0.17700
C543        C  0.99763835  0.15788819  0.90257373    -0.17700
C544        C  0.01293818  0.23374303  0.00046827    -0.17700
H545        H  0.06060346  0.10643633  0.64013317     0.15200
H546        H  0.07735883  0.06852535  0.58369781     0.15200
H547        H  0.05831718  0.24795616  0.91764243     0.15200
H548        H  0.05283599  0.20592131  0.86837328     0.15200
H549        H  0.10633691  0.17789836  0.55942661     0.13500
H550        H  0.08617557  0.22214762  0.50849743     0.13500
H551        H  0.09361118  0.07653534  0.92310013     0.13500
H552        H  0.05569240  0.11196867  0.86762465     0.13500
H553        H  0.01435510  0.14436693  0.52624788     0.26800
H554        H  0.98280417  0.17852352  0.98245642     0.26800
N555        N  0.97076521  0.12757464  0.79809946    -0.36000
N556        N  0.97552617  0.12981795  0.70934276    -0.56600
N557        N  0.98737628  0.19306453  0.70916355    -0.36000
N558        N  0.98207451  0.19068609  0.79765577    -0.56600
C559        C  0.95054989  0.10130854  0.79158571     0.27600
C560        C  0.96590429  0.13260126  0.83889197     0.27600
C561        C  0.01070178  0.18646733  0.67300208     0.27600
C562        C  0.00391985  0.21942035  0.71947931     0.27600
C563        C  0.95252841  0.10378479  0.71442425     0.36200
C564        C  0.97298464  0.13781660  0.66881155     0.36200
C565        C  0.96686107  0.18443400  0.83675265     0.36200
C566        C  0.97078832  0.21880841  0.79037241     0.36200
C567        C  0.93103584  0.09029227  0.82911737    -0.21300
C568        C  0.94142440  0.10981835  0.85880413    -0.21300
C569        C  0.04313646  0.20901454  0.66104426    -0.21300
C570        C  0.03770648  0.23002524  0.68976449    -0.21300
C571        C  0.93323477  0.09586281  0.67672733    -0.22300
C572        C  0.94586084  0.11736314  0.64814358    -0.22300
C573        C  0.94300338  0.20830618  0.85370621    -0.22300
C574        C  0.94619753  0.23033691  0.82436390    -0.22300
C575        C  0.94837270  0.08747948  0.75274794    -0.17700
C576        C  0.97975744  0.15830937  0.85789568    -0.17700
C577        C  0.98809850  0.23419928  0.75487132    -0.17700
C578        C  0.00013208  0.16152095  0.65002273    -0.17700
H579        H  0.90849290  0.07118793  0.83498359     0.15200
H580        H  0.92973475  0.10818772  0.89097375     0.15200
H581        H  0.06978150  0.21040320  0.63537490     0.15200
H582        H  0.05808935  0.25021994  0.68976978     0.15200
H583        H  0.91060011  0.07721479  0.67027547     0.13500
H584        H  0.93642868  0.11776056  0.61571926     0.13500
H585        H  0.92716555  0.20996500  0.88462466     0.13500
H586        H  0.93321537  0.25235325  0.82801026     0.13500
H587        H  0.99128347  0.14056194  0.77724367     0.26800
H588        H  0.95824082  0.18146161  0.72425035     0.26800
N589        N  0.25790297  0.13070159  0.54692677    -0.36000
N590        N  0.27265439  0.13071827  0.96095502    -0.56600
N591        N  0.25235655  0.19329723  0.95616262    -0.36000
N592        N  0.24895939  0.19354201  0.54488338    -0.56600
C593        C  0.28301780  0.10507971  0.54193987     0.27600
C594        C  0.26157451  0.13799028  0.58700723     0.27600
C595        C  0.26126749  0.18601849  0.91677724     0.27600
C596        C  0.27218074  0.21989445  0.96103698     0.27600
C597        C  0.30112418  0.10669550  0.96784034     0.36200
C598        C  0.27218668  0.13551667  0.91966325     0.36200
C599        C  0.22371476  0.18691540  0.58069126     0.36200
C600        C  0.23336156  0.22032378  0.53256953     0.36200
C601        C  0.30364277  0.09630635  0.57952063    -0.21300
C602        C  0.29056007  0.11705728  0.60768817    -0.21300
C603        C  0.28867200  0.20745033  0.89621516    -0.21300
C604        C  0.29579546  0.22881746  0.92400622    -0.21300
C605        C  0.32231245  0.09781045  0.93049486    -0.22300
C606        C  0.30353363  0.11591981  0.90001117    -0.22300
C607        C  0.19033202  0.20950017  0.59005798    -0.22300
C608        C  0.19680965  0.23066298  0.55976817    -0.22300
C609        C  0.28929356  0.09015557  0.50402575    -0.17700
C610        C  0.23489738  0.16167516  0.60541085    -0.17700
C611        C  0.25542130  0.23564779  0.49834850    -0.17700
C612        C  0.24819672  0.15939496  0.90028451    -0.17700
H613        H  0.32752554  0.07758814  0.58593884     0.15200
H614        H  0.30135374  0.11673114  0.63980763     0.15200
H615        H  0.30322559  0.20733563  0.86478605     0.15200
H616        H  0.31780602  0.24781776  0.91683537     0.15200
H617        H  0.34975862  0.08061835  0.92542374     0.13500
H618        H  0.31347144  0.11550423  0.86745514     0.13500
H619        H  0.16298316  0.21096101  0.61515707     0.13500
H620        H  0.17692583  0.25123452  0.55789740     0.13500
H621        H  0.23408168  0.14129453  0.52588149     0.26800
H622        H  0.23003954  0.18137286  0.97736558     0.26800
N623        N  0.21148729  0.12578883  0.71003765    -0.36000
N624        N  0.20876694  0.12629865  0.79887710    -0.56600
N625        N  0.22306748  0.18972291  0.79586439    -0.36000
N626        N  0.23166011  0.20332386  0.68993722    -0.56600
C627        C  0.19100450  0.09948662  0.71775167     0.27600
C628        C  0.20679024  0.13210125  0.66923209     0.27600
C629        C  0.21171762  0.18331074  0.83573351     0.27600
C630        C  0.21060964  0.21779836  0.78936670     0.27600
C631        C  0.19609218  0.09819351  0.79514859     0.36200
C632        C  0.21364996  0.13099729  0.83974482     0.36200
C633        C  0.20181391  0.18279752  0.67374812     0.36200
C634        C  0.20054648  0.21734033  0.71707625     0.36200
C635        C  0.17135294  0.08975123  0.68081603    -0.21300
C636        C  0.18225996  0.11009313  0.65018451    -0.21300
C637        C  0.18803631  0.20686424  0.85376860    -0.21300
C638        C  0.18792081  0.22889423  0.82445776    -0.21300
C639        C  0.18888411  0.08587485  0.83455991    -0.22300
C640        C  0.19989682  0.10649711  0.86237056    -0.22300
C641        C  0.15311236  0.18340283  0.69120114    -0.22300
C642        C  0.15223430  0.20522624  0.71825539    -0.22300
C643        C  0.19110654  0.08391601  0.75667983    -0.17700
C644        C  0.21939193  0.15914163  0.65095251    -0.17700
C645        C  0.21771700  0.23252937  0.75117105    -0.17700
C646        C  0.22704025  0.15773570  0.85681574    -0.17700
H647        H  0.14878525  0.07077632  0.67612570     0.15200
H648        H  0.17040003  0.10965500  0.61835295     0.15200
H649        H  0.17331993  0.20817279  0.88509682     0.15200
H650        H  0.17214336  0.25031697  0.82828878     0.15200
H651        H  0.17464512  0.06489955  0.84375073     0.13500
H652        H  0.19560880  0.10396025  0.89554719     0.13500
H653        H  0.12259467  0.16824634  0.68665051     0.13500
H654        H  0.12130674  0.20993981  0.73976713     0.13500
H655        H  0.23119616  0.13859619  0.73017260     0.26800
H656        H  0.24315364  0.17671865  0.77525407     0.26800
O657        O  0.12218419  0.00141133  0.46380856    -0.73800
O658        O  0.47716796  0.00331827  0.46560623    -0.73800
O659        O  0.04896412  0.53944088  0.46729380    -0.73900
O660        O  0.55143366  0.96208100  0.46456016    -0.73900
O661        O  0.06415056  0.95747828  0.03557603    -0.73900
O662        O  0.56066626  0.53785528  0.03155629    -0.73900
O663        O  0.48455671  0.49905250  0.03553412    -0.73800
O664        O  0.13222899  0.49755897  0.03622813    -0.73900
Ni665      Ni  0.04889015  0.00177831  0.46231274     1.25400
Ni666      Ni  0.55747234  0.49662875  0.03888652     1.25400
C667        C  0.15617257  0.49837115  0.00139208     0.88400
C668        C  0.46184761  0.49971950  0.00080152     0.88300
C669        C  0.04879755  0.55328108  0.50087542     0.88300
C670        C  0.56285527  0.94891493  0.99368308     0.88500
O671        O  0.01797997  0.50028224  0.28382282    -0.73800
O672        O  0.37441234  0.50754334  0.28358949    -0.73800
O673        O  0.94928500  0.95680088  0.28726548    -0.73900
O674        O  0.45166727  0.54678165  0.27554835    -0.73900
O675        O  0.94782297  0.54388687  0.21180027    -0.73900
O676        O  0.45158710  0.95936069  0.21349497    -0.73900
O677        O  0.37649940  0.00031795  0.21625325    -0.73800
O678        O  0.02305942  0.00007565  0.21800470    -0.73900
Ni679      Ni  0.94492587  0.50156280  0.28443341     1.25400
Ni680      Ni  0.44985610  0.00065006  0.21374747     1.25400
C681        C  0.04636514  0.99832946  0.25243417     0.88400
C682        C  0.35198418  0.99855199  0.25079420     0.88300
C683        C  0.45121994  0.94312167  0.24614459     0.88300
C684        C  0.45108482  0.55984009  0.23998936     0.88500
O685        O  0.24098465  0.00102787  0.03581030    -0.73800
O686        O  0.38132395  0.50182838  0.03463613    -0.73800
O687        O  0.30624237  0.54320505  0.03629656    -0.73900
O688        O  0.31447367  0.96026707  0.02764977    -0.73900
O689        O  0.30418347  0.96338157  0.45984852    -0.73100
O690        O  0.29197035  0.54369731  0.47094595    -0.73900
O691        O  0.37330846  0.00537580  0.46461937    -0.73800
O692        O  0.22270842  0.50067976  0.46894621    -0.73900
Ni693      Ni  0.30834858  0.50136949  0.03691541     1.25400
Ni694      Ni  0.30026248  0.00452089  0.46174900     1.25400
C695        C  0.21197726  0.50037450  0.00064150     0.88400
C696        C  0.40609247  0.50234340  0.00027545     0.88300
C697        C  0.30547267  0.55791327  0.00209015     0.88300
C698        C  0.31622289  0.94882657  0.99192601     0.88500
O699        O  0.12552491  0.99569092  0.28678108    -0.73800
O700        O  0.26942788  0.50201653  0.28618433    -0.73800
O701        O  0.19213766  0.54132752  0.28548770    -0.73900
O702        O  0.20139963  0.95487171  0.28469243    -0.73900
O703        O  0.20298250  0.95809336  0.21642613    -0.73900
O704        O  0.19334153  0.54203378  0.21719018    -0.73900
O705        O  0.27243287  0.00045805  0.21705627    -0.73800
O706        O  0.12472692  0.49930926  0.21694882    -0.73900
Ni707      Ni  0.19577692  0.50005338  0.28877878     1.25400
Ni708      Ni  0.19951127  0.99934177  0.21537178     1.25400
C709        C  0.10211977  0.99723711  0.25238336     0.88400
C710        C  0.29608436  0.99883257  0.25127515     0.88300
C711        C  0.19092627  0.55556569  0.25104540     0.88300
C712        C  0.20374006  0.94255458  0.24976794     0.88500
N713        N  0.55293678  0.87211664  0.44670347    -0.36000
N714        N  0.52072927  0.80138763  0.42847619    -0.56600
N715        N  0.52008449  0.80932075  0.03068712    -0.36000
N716        N  0.52571733  0.87391267  0.03030172    -0.56600
C717        C  0.55712595  0.86866256  0.40532614     0.27600
C718        C  0.55712110  0.90060623  0.45404052     0.27600
C719        C  0.50685861  0.78257953  0.01906635     0.27600
C720        C  0.48942652  0.81651602  0.06295122     0.27600
C721        C  0.55849446  0.81705532  0.41002996     0.36200
C722        C  0.54419245  0.78431708  0.45727550     0.36200
C723        C  0.55322642  0.89870077  0.02711697     0.36200
C724        C  0.52593785  0.86487659  0.07065029     0.36200
C725        C  0.56713093  0.89479923  0.38584834    -0.21300
C726        C  0.56799418  0.91484473  0.41620944    -0.21300
C727        C  0.46647325  0.77265753  0.04324205    -0.21300
C728        C  0.45436518  0.79444936  0.06994847    -0.21300
C729        C  0.60484765  0.81123642  0.42915994    -0.22300
C730        C  0.59592753  0.78994200  0.45871185    -0.22300
C731        C  0.57180277  0.90493765  0.06573172    -0.22300
C732        C  0.55501552  0.88355290  0.09296855    -0.22300
C733        C  0.54950774  0.84217663  0.38579161    -0.17700
C734        C  0.55964527  0.91626342  0.99010275    -0.17700
C735        C  0.49697652  0.84114840  0.08762060    -0.17700
C736        C  0.53071977  0.76786516  0.98635403    -0.17700
H737        H  0.57361356  0.89903267  0.35317726     0.15200
H738        H  0.57714365  0.93706579  0.40946300     0.15200
H739        H  0.44603262  0.75266792  0.04031912     0.15200
H740        H  0.42141829  0.79432748  0.09008940     0.15200
H741        H  0.64074434  0.82223306  0.42334159     0.13500
H742        H  0.62327023  0.78084842  0.48036331     0.13500
H743        H  0.59652694  0.92242760  0.07358015     0.13500
H744        H  0.56348383  0.88191697  0.12555048     0.13500
H745        H  0.54562690  0.85556681  0.46822594     0.26800
H746        H  0.55159746  0.82091985  0.01930633     0.26800
N747        N  0.46868007  0.87017594  0.19489999    -0.36000
N748        N  0.49944115  0.87133702  0.28303920    -0.56600
N749        N  0.52386512  0.81051880  0.28071365    -0.36000
N750        N  0.51386694  0.80675971  0.18379479    -0.56600
C751        C  0.45743007  0.89811788  0.20261389     0.27600
C752        C  0.46686879  0.86682419  0.15345553     0.27600
C753        C  0.54831755  0.81741741  0.31553737     0.27600
C754        C  0.54164914  0.78462630  0.26868252     0.27600
C755        C  0.46607891  0.89389598  0.27963657     0.36200
C756        C  0.50038782  0.86294140  0.32366344     0.36200
C757        C  0.47739890  0.81533707  0.15687787     0.36200
C758        C  0.49329764  0.78430780  0.20569411     0.36200
C759        C  0.44483652  0.91188604  0.16502564    -0.21300
C760        C  0.45139682  0.89228345  0.13440629    -0.21300
C761        C  0.58431151  0.79581873  0.32448816    -0.21300
C762        C  0.57907581  0.77478063  0.29539175    -0.21300
C763        C  0.44525037  0.89946921  0.31834629    -0.22300
C764        C  0.46658199  0.87986872  0.34596698    -0.22300
C765        C  0.43235046  0.80066290  0.16552256    -0.22300
C766        C  0.44354689  0.77942978  0.19442711    -0.22300
C767        C  0.45711448  0.91076206  0.24266179    -0.17700
C768        C  0.47978604  0.84109853  0.13312790    -0.17700
C769        C  0.51859643  0.76908172  0.23731525    -0.17700
C770        C  0.53331351  0.84094672  0.34069639    -0.17700
H771        H  0.43013797  0.93331442  0.15881406     0.15200
H772        H  0.44433956  0.89622013  0.10189324     0.15200
H773        H  0.61099417  0.79466217  0.34956326     0.15200
H774        H  0.59954702  0.75442131  0.29437702     0.15200
H775        H  0.41635526  0.91538972  0.32598458     0.13500
H776        H  0.45778198  0.87812247  0.37870619     0.13500
H777        H  0.39489751  0.80558430  0.15333495     0.13500
H778        H  0.41713901  0.76399592  0.20835326     0.13500
H779        H  0.47854258  0.85409571  0.21636684     0.26800
H780        H  0.49124085  0.82060718  0.26881747     0.26800
N781        N  0.30402773  0.87238961  0.44557500    -0.36000
N782        N  0.29293955  0.87394241  0.03373483    -0.56600
N783        N  0.28204634  0.81007332  0.03610290    -0.36000
N784        N  0.27454059  0.79645645  0.43032381    -0.56600
C785        C  0.30878272  0.90112039  0.45081391     0.27600
C786        C  0.30244432  0.86751070  0.40456982     0.27600
C787        C  0.28901081  0.81534477  0.07634808     0.27600
C788        C  0.29164883  0.78164340  0.03102515     0.27600
C789        C  0.31693027  0.89940981  0.02627209     0.36200
C790        C  0.29789236  0.86743516  0.07452182     0.36200
C791        C  0.30709757  0.81605471  0.41280670     0.36200
C792        C  0.30231289  0.78252096  0.45994750     0.36200
C793        C  0.31376032  0.91431200  0.41157357    -0.21300
C794        C  0.30989911  0.89315557  0.38274452    -0.21300
C795        C  0.30657514  0.79026482  0.09631500    -0.21300
C796        C  0.30789093  0.76894436  0.06775452    -0.21300
C797        C  0.33954016  0.90801232  0.06242621    -0.22300
C798        C  0.32682104  0.88808133  0.09288593    -0.22300
C799        C  0.35473403  0.81435314  0.43093284    -0.22300
C800        C  0.35160314  0.79320787  0.46086830    -0.22300
C801        C  0.31425420  0.91624308  0.98857142    -0.17700
C802        C  0.29182184  0.84002637  0.38836854    -0.17700
C803        C  0.28680071  0.76803916  0.99283444    -0.17700
C804        C  0.27936813  0.84219417  0.09513265    -0.17700
H805        H  0.32081490  0.93655556  0.40311207     0.15200
H806        H  0.31265226  0.89640309  0.34956794     0.15200
H807        H  0.31796592  0.78749152  0.12810357     0.15200
H808        H  0.32077930  0.74694904  0.07322265     0.15200
H809        H  0.36392355  0.92635011  0.06664435     0.13500
H810        H  0.33921704  0.88813328  0.12459063     0.13500
H811        H  0.38691245  0.82853220  0.42510839     0.13500
H812        H  0.38069378  0.78777378  0.48323083     0.13500
H813        H  0.29943771  0.85640807  0.46829020     0.26800
H814        H  0.26689824  0.82426334  0.01388903     0.26800
N815        N  0.24628773  0.87274797  0.20063613    -0.36000
N816        N  0.23970004  0.86778127  0.28894799    -0.56600
N817        N  0.25179773  0.80584908  0.28738057    -0.36000
N818        N  0.25729201  0.80870614  0.19807878    -0.56600
C819        C  0.22163953  0.89806133  0.20785218     0.27600
C820        C  0.24738658  0.86892614  0.15933585     0.27600
C821        C  0.27820548  0.81183792  0.32172059     0.27600
C822        C  0.26737559  0.77978056  0.27430661     0.27600
C823        C  0.21399291  0.89309261  0.28494177     0.36200
C824        C  0.23725128  0.85918015  0.32916372     0.36200
C825        C  0.24312550  0.81795361  0.16023759     0.36200
C826        C  0.23376978  0.78321107  0.20546187     0.36200
C827        C  0.20584050  0.90982886  0.16993335    -0.21300
C828        C  0.22250210  0.89169400  0.13961167    -0.21300
C829        C  0.31238097  0.78910624  0.32970684    -0.21300
C830        C  0.30468217  0.76865426  0.30024416    -0.21300
C831        C  0.19252540  0.89987107  0.32311528    -0.22300
C832        C  0.20720308  0.87838976  0.35098816    -0.22300
C833        C  0.20866530  0.79919590  0.14381760    -0.22300
C834        C  0.20259365  0.77704425  0.17252159    -0.22300
C835        C  0.21192658  0.91026646  0.24754167    -0.17700
C836        C  0.26216618  0.84298783  0.14033938    -0.17700
C837        C  0.24452370  0.76586402  0.24098200    -0.17700
C838        C  0.26834152  0.83660350  0.34608671    -0.17700
H839        H  0.18105292  0.92819672  0.16400545     0.15200
H840        H  0.21305816  0.89377645  0.10725098     0.15200
H841        H  0.34040687  0.78695352  0.35370553     0.15200
H842        H  0.32451209  0.74815012  0.29793335     0.15200
H843        H  0.16814377  0.91800146  0.33055152     0.13500
H844        H  0.19809496  0.87744933  0.38372450     0.13500
H845        H  0.19000269  0.80135129  0.11427413     0.13500
H846        H  0.17694926  0.75927003  0.16904318     0.13500
H847        H  0.26455716  0.85905245  0.22177180     0.26800
H848        H  0.22076534  0.81744840  0.27525113     0.26800
N849        N  0.03368680  0.62665838  0.04488181    -0.36000
N850        N  0.01830613  0.70421000  0.05811827    -0.56600
N851        N  0.99578227  0.69168389  0.45522506    -0.36000
N852        N  0.01695917  0.62722397  0.45619444    -0.56600
C853        C  0.03505383  0.63221472  0.08548076     0.27600
C854        C  0.05171563  0.59959334  0.03969949     0.27600
C855        C  0.00876415  0.71978928  0.45866133     0.27600
C856        C  0.00521153  0.68474342  0.41553226     0.27600
C857        C  0.04534557  0.68254810  0.07694059     0.36200
C858        C  0.05141716  0.71597906  0.02958948     0.36200
C859        C  0.04011397  0.60104609  0.46110193     0.36200
C860        C  0.01290079  0.63279587  0.41515247     0.36200
C861        C  0.05468895  0.60882076  0.10730298    -0.21300
C862        C  0.06605537  0.58836162  0.07848316    -0.21300
C863        C  0.02891770  0.72997250  0.42098827    -0.21300
C864        C  0.02838238  0.70760417  0.39462972    -0.21300
C865        C  0.09437949  0.68063322  0.05997429    -0.22300
C866        C  0.09795341  0.70159159  0.02984976    -0.22300
C867        C  0.05388443  0.59099289  0.42245309    -0.22300
C868        C  0.03685546  0.61098097  0.39364543    -0.22300
C869        C  0.02402080  0.65969123  0.10095282    -0.17700
C870        C  0.04715118  0.58584911  0.49985355    -0.17700
C871        C  0.99240436  0.65861149  0.39708708    -0.17700
C872        C  0.00614259  0.73469413  0.49644862    -0.17700
H873        H  0.06335108  0.60744138  0.13986743     0.15200
H874        H  0.08600487  0.56845973  0.08597713     0.15200
H875        H  0.04575579  0.75028439  0.41233160     0.15200
H876        H  0.04338366  0.70819262  0.36327180     0.15200
H877        H  0.12315031  0.66426991  0.06681852     0.13500
H878        H  0.12973643  0.70474498  0.00834758     0.13500
H879        H  0.07644995  0.57214029  0.41511177     0.13500
H880        H  0.04427249  0.61019557  0.36074942     0.13500
H881        H  0.01850517  0.64105305  0.02311622     0.26800
H882        H  0.97815785  0.67867828  0.47804467     0.26800
N883        N  0.96739022  0.62924285  0.29233754    -0.36000
N884        N  0.97472679  0.63200815  0.20325228    -0.56600
N885        N  0.98649130  0.69401375  0.20346297    -0.36000
N886        N  0.97599209  0.69138676  0.29242188    -0.56600
C887        C  0.94660806  0.60343675  0.28465331     0.27600
C888        C  0.95969548  0.63406859  0.33292576     0.27600
C889        C  0.01256993  0.68753123  0.16839254     0.27600
C890        C  0.00301324  0.71981117  0.21577989     0.27600
C891        C  0.95169918  0.60606740  0.20788202     0.36200
C892        C  0.97293563  0.63996563  0.16272323     0.36200
C893        C  0.96048346  0.68529033  0.33145119     0.36200
C894        C  0.96274658  0.71905118  0.28426921     0.36200
C895        C  0.92371856  0.59247264  0.32095288    -0.21300
C896        C  0.93251928  0.61170781  0.35143434    -0.21300
C897        C  0.04716654  0.70957857  0.15921081    -0.21300
C898        C  0.04034231  0.73013475  0.18869421    -0.21300
C899        C  0.93287232  0.59809680  0.17009722    -0.22300
C900        C  0.94579555  0.61964267  0.14172164    -0.22300
C901        C  0.93425857  0.70864438  0.34759372    -0.22300
C902        C  0.93610928  0.73031145  0.31758411    -0.22300
C903        C  0.94766492  0.58975446  0.24586047    -0.17700
C904        C  0.97370723  0.65934835  0.35258954    -0.17700
C905        C  0.98199983  0.73461491  0.24961042    -0.17700
C906        C  0.00230237  0.66296014  0.14447788    -0.17700
H907        H  0.90052959  0.57341451  0.32513119     0.15200
H908        H  0.91852256  0.61012655  0.38305466     0.15200
H909        H  0.07576404  0.71100015  0.13493228     0.15200
H910        H  0.06121618  0.75007357  0.19053241     0.15200
H911        H  0.91069137  0.57928305  0.16352221     0.13500
H912        H  0.93709835  0.61998112  0.10915788     0.13500
H913        H  0.91750726  0.71019288  0.37823917     0.13500
H914        H  0.92148574  0.75207016  0.32057216     0.13500
H915        H  0.99041933  0.64170184  0.27253173     0.26800
H916        H  0.95516283  0.68297896  0.21631950     0.26800
N917        N  0.26971691  0.63205808  0.04214669    -0.36000
N918        N  0.26679274  0.62999520  0.45644132    -0.56600
N919        N  0.25323040  0.69347350  0.45083024    -0.36000
N920        N  0.26477661  0.69493780  0.03872262    -0.56600
C921        C  0.29436314  0.60625085  0.03804089     0.27600
C922        C  0.27324407  0.63985792  0.08195522     0.27600
C923        C  0.26671249  0.68497393  0.41289555     0.27600
C924        C  0.27756948  0.71857325  0.45715670     0.27600
C925        C  0.28830289  0.60388171  0.46382388     0.36200
C926        C  0.26711799  0.63429735  0.41509426     0.36200
C927        C  0.23794549  0.68910753  0.07404690     0.36200
C928        C  0.25092474  0.72181098  0.02547590     0.36200
C929        C  0.31471151  0.59794661  0.07597930    -0.21300
C930        C  0.30156394  0.61909405  0.10350765    -0.21300
C931        C  0.30148338  0.70391652  0.39482603    -0.21300
C932        C  0.30865019  0.72517786  0.42282763    -0.21300
C933        C  0.30701765  0.59306080  0.42674205    -0.22300
C934        C  0.29292989  0.61220658  0.39589570    -0.22300
C935        C  0.20549075  0.71232431  0.08226735    -0.22300
C936        C  0.21414491  0.73307004  0.05170480    -0.22300
C937        C  0.29949225  0.59047764  0.00078257    -0.17700
C938        C  0.24660497  0.66382650  0.09926892    -0.17700
C939        C  0.27382925  0.73618383  0.99075880    -0.17700
C940        C  0.24937915  0.65966420  0.39539512    -0.17700
H941        H  0.33815743  0.57918242  0.08315507     0.15200
H942        H  0.31168936  0.61912791  0.13576867     0.15200
H943        H  0.32029590  0.70223813  0.36494943     0.15200
H944        H  0.33522706  0.74258987  0.41792338     0.15200
H945        H  0.33048895  0.57412153  0.42184419     0.13500
H946        H  0.30283724  0.61078163  0.36343587     0.13500
H947        H  0.17723770  0.71439429  0.10666519     0.13500
H948        H  0.19508753  0.75384006  0.04873465     0.13500
H949        H  0.24590586  0.64244270  0.02087457     0.26800
H950        H  0.22535898  0.68354296  0.46966600     0.26800
N951        N  0.21517577  0.62896614  0.20328273    -0.36000
N952        N  0.21080848  0.62978606  0.29260467    -0.56600
N953        N  0.23369205  0.69194831  0.29058352    -0.36000
N954        N  0.24346528  0.70512081  0.18272254    -0.56600
C955        C  0.19442453  0.60274611  0.21067581     0.27600
C956        C  0.21382256  0.63466588  0.16212661     0.27600
C957        C  0.22159261  0.68648843  0.33051982     0.27600
C958        C  0.22546433  0.72040722  0.28339329     0.27600
C959        C  0.19202746  0.60295595  0.28816262     0.36200
C960        C  0.21141282  0.63459531  0.33362773     0.36200
C961        C  0.21192469  0.68548537  0.16649606     0.36200
C962        C  0.21411678  0.71869024  0.21138500     0.36200
C963        C  0.17811832  0.59231210  0.17310577    -0.21300
C964        C  0.19119445  0.61227591  0.14248021    -0.21300
C965        C  0.20230138  0.71134102  0.34820738    -0.21300
C966        C  0.20518347  0.73296376  0.31836628    -0.21300
C967        C  0.17640906  0.59191158  0.32673413    -0.22300
C968        C  0.18892097  0.61179192  0.35530579    -0.22300
C969        C  0.16370066  0.68665863  0.18488567    -0.22300
C970        C  0.16509811  0.70756932  0.21323460    -0.22300
C971        C  0.19081792  0.58806766  0.25007015    -0.17700
C972        C  0.22802083  0.66148427  0.14393810    -0.17700
C973        C  0.23327115  0.73397017  0.24443191    -0.17700
C974        C  0.23016964  0.65991050  0.35144305    -0.17700
H975        H  0.15619304  0.57318582  0.16785992     0.15200
H976        H  0.18187071  0.61133459  0.11012091     0.15200
H977        H  0.18731342  0.71360260  0.37930485     0.15200
H978        H  0.19202230  0.75497234  0.32164107     0.15200
H979        H  0.15617815  0.57218553  0.33411107     0.13500
H980        H  0.18064262  0.61003617  0.38812934     0.13500
H981        H  0.13222388  0.67211896  0.18042050     0.13500
H982        H  0.13504679  0.71248848  0.23544448     0.13500
H983        H  0.23265003  0.64217801  0.22405088     0.26800
H984        H  0.25100388  0.67779641  0.27014408     0.26800
O985        O  0.13707274  0.00247772  0.96877322    -0.73800
O986        O  0.49179970  0.00741911  0.96303981    -0.73800
O987        O  0.05937341  0.53929777  0.96783811    -0.73900
O988        O  0.56502561  0.96533297  0.96116775    -0.73900
O989        O  0.04879893  0.95837725  0.53439565    -0.73900
O990        O  0.54711077  0.53854478  0.53241262    -0.73900
O991        O  0.47161561  0.49923755  0.53775737    -0.73800
O992        O  0.11745396  0.49657731  0.53810849    -0.73900
Ni993      Ni  0.06424123  0.00206773  0.96712536     1.25400
Ni994      Ni  0.54471399  0.49733197  0.53998825     1.25400
C995        C  0.14217478  0.49695014  0.50363287     0.88400
C996        C  0.44825526  0.49999577  0.50331507     0.88300
C997        C  0.05889687  0.55281805  0.00166348     0.88300
C998        C  0.55191763  0.94591576  0.49731015     0.88500
O999        O  0.01683167  0.50011075  0.79107407    -0.73800
O1000       O  0.37024026  0.50670086  0.78449224    -0.73800
O1001       O  0.94027045  0.95654340  0.78917434    -0.73900
O1002       O  0.44750736  0.54546754  0.77920409    -0.73900
O1003       O  0.94571566  0.54256662  0.71868973    -0.73900
O1004       O  0.44308620  0.95751643  0.71528860    -0.73900
O1005       O  0.36961530  0.99936199  0.71773250    -0.73800
O1006       O  0.01524344  0.99892999  0.71946698    -0.73900
Ni1007     Ni  0.94363383  0.50126136  0.79325150     1.25400
Ni1008     Ni  0.44304973  0.99894415  0.71586052     1.25400
C1009       C  0.03871604  0.99752017  0.75384022     0.88400
C1010       C  0.34467144  0.99701254  0.75203293     0.88300
C1011       C  0.44201618  0.94134392  0.74807932     0.88300
C1012       C  0.44781637  0.55866705  0.74375522     0.88500
O1013       O  0.22513016  0.99990857  0.53238538    -0.73800
O1014       O  0.36779076  0.50140119  0.53774820    -0.73800
O1015       O  0.29254744  0.54243326  0.53927650    -0.73900
O1016       O  0.30021597  0.95917041  0.52794907    -0.73900
O1017       O  0.31742830  0.96526210  0.95959581    -0.73100
O1018       O  0.30636624  0.54464065  0.96799289    -0.73900
O1019       O  0.38648218  0.00819725  0.96350466    -0.73800
O1020       O  0.23633136  0.50214801  0.96601968    -0.73900
Ni1021     Ni  0.29471103  0.50062438  0.54003231     1.25400
Ni1022     Ni  0.31324849  0.00643600  0.96282117     1.25400
C1023       C  0.19814135  0.49893066  0.50345141     0.88400
C1024       C  0.39241436  0.50220336  0.50329133     0.88300
C1025       C  0.29233205  0.55702474  0.50496893     0.88300
C1026       C  0.30481960  0.94741358  0.49262636     0.88500
O1027       O  0.11808162  0.99432558  0.78796144    -0.73800
O1028       O  0.26749719  0.50138955  0.78663454    -0.73800
O1029       O  0.19037931  0.54044208  0.78767605    -0.73900
O1030       O  0.19274260  0.95308930  0.78494365    -0.73900
O1031       O  0.19324045  0.95683154  0.71663898    -0.73900
O1032       O  0.18925347  0.54109198  0.71946579    -0.73900
O1033       O  0.26519513  0.99810802  0.71793130    -0.73800
O1034       O  0.12098924  0.49824210  0.72145074    -0.73900
Ni1035     Ni  0.19445497  0.49919354  0.79101027     1.25400
Ni1036     Ni  0.19213040  0.99801101  0.71633711     1.25400
C1037       C  0.09457038  0.99644807  0.75365041     0.88400
C1038       C  0.28877222  0.99672936  0.75220584     0.88300
C1039       C  0.18786528  0.55464734  0.75326498     0.88300
C1040       C  0.19369150  0.94109276  0.74975717     0.88500
N1041       N  0.55918126  0.87458504  0.94386435    -0.36000
N1042       N  0.52735685  0.80204486  0.92872445    -0.56600
N1043       N  0.50630976  0.80837363  0.53198766    -0.36000
N1044       N  0.51536556  0.87150850  0.53328550    -0.56600
C1045       C  0.55866816  0.87047248  0.90259329     0.27600
C1046       C  0.56093015  0.90333496  0.95016452     0.27600
C1047       C  0.49310002  0.78189025  0.51943725     0.27600
C1048       C  0.47577913  0.81503979  0.56463327     0.27600
C1049       C  0.56262317  0.81894331  0.90944916     0.36200
C1050       C  0.55403390  0.78482668  0.95534079     0.36200
C1051       C  0.54373633  0.89592560  0.53070795     0.36200
C1052       C  0.51306102  0.86292719  0.57379793     0.36200
C1053       C  0.56365044  0.89663423  0.88178148    -0.21300
C1054       C  0.56505958  0.91732532  0.91134251    -0.21300
C1055       C  0.45287472  0.77155907  0.54346887    -0.21300
C1056       C  0.44089446  0.79284450  0.57104363    -0.21300
C1057       C  0.61085904  0.81358357  0.92555770    -0.22300
C1058       C  0.60554133  0.79132105  0.95423747    -0.22300
C1059       C  0.56036646  0.90239230  0.56982128    -0.22300
C1060       C  0.54143759  0.88149705  0.59683820    -0.22300
C1061       C  0.55020764  0.84337140  0.88484402    -0.17700
C1062       C  0.55190198  0.91332650  0.49392287    -0.17700
C1063       C  0.48336705  0.83932748  0.59002554    -0.17700
C1064       C  0.51786006  0.76740856  0.48688152    -0.17700
H1065       H  0.56572538  0.90057004  0.84870675     0.15200
H1066       H  0.56852927  0.93986397  0.90320080     0.15200
H1067       H  0.43272666  0.75151183  0.54017187     0.15200
H1068       H  0.40844792  0.79219783  0.59163489     0.15200
H1069       H  0.64570715  0.82519297  0.91804400     0.13500
H1070       H  0.63506026  0.78230080  0.97399438     0.13500
H1071       H  0.58508086  0.91977092  0.57815421     0.13500
H1072       H  0.54831045  0.88004063  0.62968844     0.13500
H1073       H  0.55718244  0.85810265  0.96624895     0.26800
H1074       H  0.53816963  0.81987328  0.52122300     0.26800
N1075       N  0.45586072  0.86804227  0.69750804    -0.36000
N1076       N  0.48987768  0.86976377  0.78489579    -0.56600
N1077       N  0.51224162  0.80895940  0.78384462    -0.36000
N1078       N  0.50004890  0.80525933  0.68684849    -0.56600
C1079       C  0.44417447  0.89590826  0.70538624     0.27600
C1080       C  0.45270225  0.86462435  0.65612614     0.27600
C1081       C  0.53945313  0.81608269  0.81721892     0.27600
C1082       C  0.52896409  0.78298789  0.77138670     0.27600
C1083       C  0.45651550  0.89231288  0.78212563     0.36200
C1084       C  0.49368237  0.86211967  0.82562894     0.36200
C1085       C  0.46419162  0.81321460  0.65904844     0.36200
C1086       C  0.47946373  0.78286191  0.70884172     0.36200
C1087       C  0.42942494  0.90946197  0.66824211    -0.21300
C1088       C  0.43581736  0.88992655  0.63742067    -0.21300
C1089       C  0.57537032  0.79421600  0.82505122    -0.21300
C1090       C  0.56773942  0.77300801  0.79669544    -0.21300
C1091       C  0.43836065  0.89856025  0.82148219    -0.22300
C1092       C  0.46155424  0.87943895  0.84880432    -0.22300
C1093       C  0.41944396  0.79822191  0.66721357    -0.22300
C1094       C  0.43034872  0.77732355  0.69662263    -0.22300
C1095       C  0.44617137  0.90888203  0.74510897    -0.17700
C1096       C  0.46592601  0.83903235  0.63549649    -0.17700
C1097       C  0.50476646  0.76768014  0.74045792    -0.17700
C1098       C  0.52801619  0.84055189  0.84171227    -0.17700
H1099       H  0.41377102  0.93078765  0.66275762     0.15200
H1100       H  0.42796431  0.89376987  0.60502301     0.15200
H1101       H  0.60417089  0.79308677  0.84850730     0.15200
H1102       H  0.58822423  0.75266991  0.79492269     0.15200
H1103       H  0.41022593  0.91471072  0.82987151     0.13500
H1104       H  0.45531927  0.87834636  0.88192977     0.13500
H1105       H  0.38220027  0.80301099  0.65474303     0.13500
H1106       H  0.40403026  0.76172139  0.71025038     0.13500
H1107       H  0.46743577  0.85219576  0.71874471     0.26800
H1108       H  0.47925953  0.81920330  0.77287774     0.26800
N1109       N  0.30174338  0.87417401  0.94408359    -0.36000
N1110       N  0.28826245  0.87248105  0.53472358    -0.56600
N1111       N  0.27561285  0.80934659  0.53663121    -0.36000
N1112       N  0.27534820  0.79700209  0.92937161    -0.56600
C1113       C  0.30652871  0.90294574  0.94938688     0.27600
C1114       C  0.29489925  0.86935108  0.90337908     0.27600
C1115       C  0.28154288  0.81460523  0.57697835     0.27600
C1116       C  0.28582293  0.78099016  0.53183391     0.27600
C1117       C  0.30997428  0.89862197  0.52819107     0.36200
C1118       C  0.28953777  0.86662996  0.57584151     0.36200
C1119       C  0.30492864  0.81785944  0.91128285     0.36200
C1120       C  0.30540981  0.78414364  0.95849862     0.36200
C1121       C  0.30421454  0.91648638  0.91031415    -0.21300
C1122       C  0.29751021  0.89539081  0.88166536    -0.21300
C1123       C  0.29907828  0.78964228  0.59722060    -0.21300
C1124       C  0.30190787  0.76842282  0.56864825    -0.21300
C1125       C  0.32795746  0.90837258  0.56540897    -0.22300
C1126       C  0.31456747  0.88830677  0.59545698    -0.22300
C1127       C  0.35328479  0.81777441  0.92831276    -0.22300
C1128       C  0.35337608  0.79665924  0.95847471    -0.22300
C1129       C  0.30887315  0.91492522  0.49009190    -0.17700
C1130       C  0.28594083  0.84136984  0.88747128    -0.17700
C1131       C  0.28114774  0.76719396  0.49394114    -0.17700
C1132       C  0.27052072  0.84127279  0.59565460    -0.17700
H1133       H  0.30772214  0.93897557  0.90169324     0.15200
H1134       H  0.29601779  0.89903411  0.84857295     0.15200
H1135       H  0.30883095  0.78674242  0.62931295     0.15200
H1136       H  0.31494259  0.74646995  0.57427856     0.15200
H1137       H  0.34971375  0.92758607  0.57066551     0.13500
H1138       H  0.32378882  0.88912454  0.62783804     0.13500
H1139       H  0.38356222  0.83313856  0.92192875     0.13500
H1140       H  0.38362859  0.79241892  0.98037618     0.13500
H1141       H  0.30224016  0.85810392  0.96676780     0.26800
H1142       H  0.26032100  0.82336862  0.51422898     0.26800
N1143       N  0.23286260  0.87121501  0.70010434    -0.36000
N1144       N  0.23122031  0.86751117  0.78871685    -0.56600
N1145       N  0.24303755  0.80586852  0.78752041    -0.36000
N1146       N  0.24562800  0.80807161  0.69803802    -0.56600
C1147       C  0.20905845  0.89671044  0.70727014     0.27600
C1148       C  0.23426706  0.86748204  0.65886152     0.27600
C1149       C  0.27038881  0.81204632  0.82141256     0.27600
C1150       C  0.25814411  0.77974787  0.77433291     0.27600
C1151       C  0.20265071  0.89173134  0.78427018     0.36200
C1152       C  0.22861453  0.85885933  0.82885925     0.36200
C1153       C  0.23253579  0.81657261  0.65967217     0.36200
C1154       C  0.22271187  0.78253872  0.70579943     0.36200
C1155       C  0.19373740  0.90870360  0.66933045    -0.21300
C1156       C  0.20994774  0.89039302  0.63900390    -0.21300
C1157       C  0.30477623  0.78934961  0.82889671    -0.21300
C1158       C  0.29624290  0.76879031  0.79968355    -0.21300
C1159       C  0.17965399  0.89789469  0.82209339    -0.22300
C1160       C  0.19609130  0.87701140  0.85031685    -0.22300
C1161       C  0.19930533  0.79726464  0.64302618    -0.22300
C1162       C  0.19267601  0.77561071  0.67241910    -0.22300
C1163       C  0.20019308  0.90887546  0.74701453    -0.17700
C1164       C  0.25064045  0.84182819  0.64004251    -0.17700
C1165       C  0.23427357  0.76560944  0.74151825    -0.17700
C1166       C  0.26095640  0.83696957  0.84577749    -0.17700
H1167       H  0.17003759  0.92752785  0.66340684     0.15200
H1168       H  0.20140206  0.89269404  0.60648302     0.15200
H1169       H  0.33337554  0.78722391  0.85244392     0.15200
H1170       H  0.31600220  0.74827856  0.79720210     0.15200
H1171       H  0.15343402  0.91536731  0.82888364     0.13500
H1172       H  0.18637429  0.87573012  0.88293247     0.13500
H1173       H  0.18161448  0.79881588  0.61304012     0.13500
H1174       H  0.16757201  0.75761346  0.66887146     0.13500
H1175       H  0.25098408  0.85751914  0.72125776     0.26800
H1176       H  0.21161593  0.81734433  0.77582692     0.26800
N1177       N  0.03145453  0.62779466  0.54364798    -0.36000
N1178       N  0.99823238  0.70331435  0.55803734    -0.56600
N1179       N  0.02243893  0.69229760  0.95371316    -0.36000
N1180       N  0.03301093  0.62772713  0.95635586    -0.56600
C1181       C  0.03431397  0.63324739  0.58414768     0.27600
C1182       C  0.04753787  0.60042607  0.53816897     0.27600
C1183       C  0.03821798  0.71984870  0.95756629     0.27600
C1184       C  0.03023040  0.68537953  0.91399156     0.27600
C1185       C  0.03192371  0.68396541  0.57456952     0.36200
C1186       C  0.02640102  0.71969947  0.53074922     0.36200
C1187       C  0.05247806  0.60071281  0.96202006     0.36200
C1188       C  0.03152481  0.63328405  0.91514853     0.36200
C1189       C  0.05436339  0.60970644  0.60542832    -0.21300
C1190       C  0.06363370  0.58909157  0.57639041    -0.21300
C1191       C  0.05870332  0.72990501  0.92004129    -0.21300
C1192       C  0.05459595  0.70790073  0.89292247    -0.21300
C1193       C  0.08022248  0.68739897  0.55688555    -0.22300
C1194       C  0.07690136  0.71034242  0.52976877    -0.22300
C1195       C  0.06716135  0.59023537  0.92368585    -0.22300
C1196       C  0.05356532  0.61063685  0.89433255    -0.22300
C1197       C  0.01923211  0.65990579  0.60018577    -0.17700
C1198       C  0.05567004  0.58533162  0.00107722    -0.17700
C1199       C  0.01451610  0.65953766  0.89623013    -0.17700
C1200       C  0.03747082  0.73387731  0.99590503    -0.17700
H1201       H  0.06318244  0.60796332  0.63794046     0.15200
H1202       H  0.08236877  0.56871894  0.58332956     0.15200
H1203       H  0.07821401  0.74974878  0.91260209     0.15200
H1204       H  0.06838114  0.70836767  0.86120930     0.15200
H1205       H  0.11370821  0.67391826  0.56219082     0.13500
H1206       H  0.10679266  0.71755694  0.50841726     0.13500
H1207       H  0.08819785  0.57079981  0.91668853     0.13500
H1208       H  0.06181298  0.60952589  0.86156917     0.13500
H1209       H  0.01572604  0.64229687  0.52235390     0.26800
H1210       H  0.00380246  0.67970898  0.97645985     0.26800
N1211       N  0.98012772  0.62917200  0.79379598    -0.36000
N1212       N  0.97705555  0.63147972  0.70538200    -0.56600
N1213       N  0.98934760  0.69441460  0.70348642    -0.36000
N1214       N  0.99126768  0.69236582  0.79210956    -0.56600
C1215       C  0.95553871  0.60400677  0.78824982     0.27600
C1216       C  0.97607475  0.63505169  0.83435485     0.27600
C1217       C  0.01208862  0.68755107  0.66720112     0.27600
C1218       C  0.00632107  0.72076039  0.71327384     0.27600
C1219       C  0.95550841  0.60508536  0.71129689     0.36200
C1220       C  0.97439746  0.63876587  0.66457107     0.36200
C1221       C  0.98033048  0.68637925  0.83212922     0.36200
C1222       C  0.97783090  0.72022436  0.78516408     0.36200
C1223       C  0.93408234  0.59467663  0.82594615    -0.21300
C1224       C  0.94744169  0.61412982  0.85495980    -0.21300
C1225       C  0.04472642  0.70993846  0.65482864    -0.21300
C1226       C  0.03993190  0.73108151  0.68329736    -0.21300
C1227       C  0.93670218  0.59623618  0.67392102    -0.22300
C1228       C  0.94824536  0.61750924  0.64468001    -0.22300
C1229       C  0.95671026  0.70991242  0.85013420    -0.22300
C1230       C  0.95577300  0.73164186  0.82030648    -0.22300
C1231       C  0.95176710  0.58946482  0.75020328    -0.17700
C1232       C  0.99422240  0.66021006  0.85234060    -0.17700
C1233       C  0.99164858  0.73563816  0.74876891    -0.17700
C1234       C  0.00111747  0.66238914  0.64481813    -0.17700
H1235       H  0.90873485  0.57673598  0.83208132     0.15200
H1236       H  0.93526546  0.61374526  0.88707765     0.15200
H1237       H  0.07171301  0.71115486  0.62945036     0.15200
H1238       H  0.06092374  0.75108414  0.68310349     0.15200
H1239       H  0.91513212  0.57709318  0.66802780     0.13500
H1240       H  0.93896472  0.61714240  0.61226449     0.13500
H1241       H  0.94288346  0.71142621  0.88168698     0.13500
H1242       H  0.94162325  0.75340049  0.82427850     0.13500
H1243       H  0.00291590  0.64063601  0.77255830     0.26800
H1244       H  0.96049077  0.68297202  0.71925310     0.26800
N1245       N  0.26032758  0.63161058  0.54395434    -0.36000
N1246       N  0.27277630  0.63058100  0.95472785    -0.56600
N1247       N  0.25829299  0.69420015  0.94940943    -0.36000
N1248       N  0.25647482  0.69433412  0.54028699    -0.56600
C1249       C  0.28435653  0.60561719  0.54028853     0.27600
C1250       C  0.26394034  0.63954760  0.58368667     0.27600
C1251       C  0.26928816  0.68596910  0.91090153     0.27600
C1252       C  0.28171453  0.71971524  0.95483016     0.27600
C1253       C  0.29599757  0.60481514  0.96133281     0.36200
C1254       C  0.27155051  0.63515374  0.91347480     0.36200
C1255       C  0.22968210  0.68896660  0.57574621     0.36200
C1256       C  0.24395499  0.72137724  0.52697829     0.36200
C1257       C  0.30457053  0.59735790  0.57825631    -0.21300
C1258       C  0.29203672  0.61878349  0.60545565    -0.21300
C1259       C  0.30150542  0.70567488  0.89124824    -0.21300
C1260       C  0.30973970  0.72701071  0.91907306    -0.21300
C1261       C  0.31386289  0.59453286  0.92364505    -0.22300
C1262       C  0.29773642  0.61360905  0.89341121    -0.22300
C1263       C  0.19855934  0.71272808  0.58410832    -0.22300
C1264       C  0.20802899  0.73327069  0.55342016    -0.22300
C1265       C  0.28905435  0.58961238  0.50335435    -0.17700
C1266       C  0.23730988  0.66352951  0.60084967    -0.17700
C1267       C  0.26810696  0.73537139  0.49246695    -0.17700
C1268       C  0.25187256  0.66026591  0.89438843    -0.17700
H1269       H  0.32751731  0.57842245  0.58559688     0.15200
H1270       H  0.30217856  0.61893413  0.63770753     0.15200
H1271       H  0.31802415  0.70445584  0.86046667     0.15200
H1272       H  0.33472053  0.74503779  0.91300812     0.15200
H1273       H  0.33833558  0.57615092  0.91781673     0.13500
H1274       H  0.30659322  0.61256122  0.86072164     0.13500
H1275       H  0.17085793  0.71540193  0.60876157     0.13500
H1276       H  0.19029666  0.75441581  0.55068976     0.13500
H1277       H  0.23679905  0.64195535  0.52239158     0.26800
H1278       H  0.23226794  0.68371566  0.96938077     0.26800
N1279       N  0.20693324  0.62858702  0.70477899    -0.36000
N1280       N  0.20831280  0.62915505  0.79379605    -0.56600
N1281       N  0.22781640  0.69169331  0.79078649    -0.36000
N1282       N  0.23360405  0.70467302  0.68357969    -0.56600
C1283       C  0.18867080  0.60182805  0.71256128     0.27600
C1284       C  0.20465654  0.63413055  0.66365926     0.27600
C1285       C  0.21779970  0.68607674  0.83096225     0.27600
C1286       C  0.21800898  0.71998579  0.78397177     0.27600
C1287       C  0.19048813  0.60204304  0.79015973     0.36200
C1288       C  0.21133340  0.63408541  0.83466425     0.36200
C1289       C  0.20192451  0.68490558  0.66793611     0.36200
C1290       C  0.20463341  0.71824048  0.71243507     0.36200
C1291       C  0.17270253  0.59091160  0.67511925    -0.21300
C1292       C  0.18373404  0.61111840  0.64430379    -0.21300
C1293       C  0.19808497  0.71058242  0.84931226    -0.21300
C1294       C  0.19859055  0.73224616  0.81946907    -0.21300
C1295       C  0.17806347  0.59082802  0.82939418    -0.22300
C1296       C  0.19149327  0.61095625  0.85730202    -0.22300
C1297       C  0.15405248  0.68595419  0.68688488    -0.22300
C1298       C  0.15572031  0.70703895  0.71494514    -0.22300
C1299       C  0.18730032  0.58714091  0.75213284    -0.17700
C1300       C  0.21785257  0.66102432  0.64522160    -0.17700
C1301       C  0.22426689  0.73366683  0.74505943    -0.17700
C1302       C  0.22956254  0.65985725  0.85152955    -0.17700
H1303       H  0.15236754  0.57124208  0.66991104     0.15200
H1304       H  0.17451925  0.60975700  0.61197452     0.15200
H1305       H  0.18475588  0.71260902  0.88091757     0.15200
H1306       H  0.18485057  0.75410486  0.82319224     0.15200
H1307       H  0.15908484  0.57089645  0.83784097     0.13500
H1308       H  0.18528934  0.60916763  0.89038991     0.13500
H1309       H  0.12270056  0.67124494  0.68296138     0.13500
H1310       H  0.12601849  0.71201880  0.73742778     0.13500
H1311       H  0.22368430  0.64238146  0.72517763     0.26800
H1312       H  0.24529336  0.67783801  0.76987989     0.26800
O1313       O  0.61887633  0.49297473  0.46871714    -0.73800
O1314       O  0.97265389  0.50068864  0.46903144    -0.73800
O1315       O  0.54853343  0.04474510  0.46933128    -0.73900
O1316       O  0.04133819  0.45688531  0.47198823    -0.73900
O1317       O  0.55353982  0.45495872  0.04123643    -0.73900
O1318       O  0.06213708  0.04010835  0.03996628    -0.73900
O1319       O  0.99025738  0.99868098  0.03871648    -0.73800
O1320       O  0.63536820  0.00127113  0.03400834    -0.73900
Ni1321     Ni  0.54580103  0.49520809  0.46667653     1.25400
Ni1322     Ni  0.06345170  0.99867962  0.04053106     1.25400
C1323       C  0.66090354  0.00343352  0.00003833     0.88400
C1324       C  0.96685802  0.00032456  0.00431658     0.88300
C1325       C  0.54604513  0.05659154  0.50456227     0.88300
C1326       C  0.05970028  0.44237504  0.00489477     0.88500
O1327       O  0.52143524  0.99578811  0.28492770    -0.73800
O1328       O  0.87568659  0.99819140  0.28727418    -0.73800
O1329       O  0.44367165  0.46432480  0.28644023    -0.73900
O1330       O  0.94872602  0.03949853  0.28590837    -0.73900
O1331       O  0.44845814  0.04179768  0.21887283    -0.73900
O1332       O  0.94768545  0.46130255  0.21476325    -0.73900
O1333       O  0.87505280  0.50247925  0.21210742    -0.73800
O1334       O  0.52001005  0.50165298  0.21090014    -0.73900
Ni1335     Ni  0.44841127  0.99594935  0.28706368     1.25400
Ni1336     Ni  0.94824222  0.50245806  0.21091324     1.25400
C1337       C  0.54428586  0.50080665  0.24496846     0.88400
C1338       C  0.84980722  0.50163271  0.24632715     0.88300
C1339       C  0.94331733  0.44699897  0.24898436     0.88300
C1340       C  0.94739348  0.05450198  0.25202344     0.88500
O1341       O  0.73506634  0.49749753  0.03748421    -0.73800
O1342       O  0.88570932  0.99900365  0.03807142    -0.73800
O1343       O  0.81354200  0.04170865  0.04038801    -0.73900
O1344       O  0.81108873  0.45753977  0.03283224    -0.73900
O1345       O  0.80130264  0.46059758  0.46535491    -0.73100
O1346       O  0.79644081  0.04467848  0.47132353    -0.73900
O1347       O  0.86886215  0.50373245  0.46866763    -0.73800
O1348       O  0.72598309  0.00309533  0.46747872    -0.73900
Ni1349     Ni  0.81245337  0.99989966  0.03914484     1.25400
Ni1350     Ni  0.79585552  0.50151114  0.46597653     1.25400
C1351       C  0.71687719  0.00281626  0.00092674     0.88400
C1352       C  0.91104999  0.00090850  0.00398861     0.88300
C1353       C  0.81464408  0.05694589  0.00662048     0.88300
C1354       C  0.81593707  0.44575195  0.99743647     0.88500
O1355       O  0.62328348  0.49567843  0.27935403    -0.73800
O1356       O  0.77145858  0.99626082  0.28711433    -0.73800
O1357       O  0.69714819  0.03724766  0.28708240    -0.73900
O1358       O  0.69986804  0.45495056  0.27954879    -0.73900
O1359       O  0.70054491  0.45694781  0.21126171    -0.73900
O1360       O  0.70104361  0.03932811  0.21895070    -0.73900
O1361       O  0.77145074  0.49900726  0.21150812    -0.73800
O1362       O  0.62737816  0.99895938  0.21692789    -0.73900
Ni1363     Ni  0.69815608  0.99577555  0.28879150     1.25400
Ni1364     Ni  0.69861525  0.49844292  0.20903761     1.25400
C1365       C  0.60023285  0.49800914  0.24480064     0.88400
C1366       C  0.79427520  0.49941975  0.24604600     0.88300
C1367       C  0.69881722  0.05224563  0.25322118     0.88300
C1368       C  0.70186685  0.44198125  0.24521062     0.88500
N1369       N  0.99967469  0.37182488  0.46175167    -0.36000
N1370       N  0.98401683  0.30911012  0.46247631    -0.56600
N1371       N  0.00651567  0.30681138  0.04608041    -0.36000
N1372       N  0.02281262  0.36870368  0.04669631    -0.56600
C1373       C  0.00427384  0.36645691  0.42098586     0.27600
C1374       C  0.02490996  0.39663020  0.46843145     0.27600
C1375       C  0.99073464  0.28064569  0.03458802     0.27600
C1376       C  0.98106224  0.31327745  0.08130489     0.27600
C1377       C  0.00017408  0.31520404  0.42362383     0.36200
C1378       C  0.99817279  0.28155839  0.47088910     0.36200
C1379       C  0.04955162  0.39362198  0.04243676     0.36200
C1380       C  0.02235496  0.36063673  0.08741046     0.36200
C1381       C  0.03363879  0.38744473  0.40135329    -0.21300
C1382       C  0.04713689  0.40624700  0.43111583    -0.21300
C1383       C  0.95405682  0.27019976  0.06191876    -0.21300
C1384       C  0.94713954  0.29095654  0.09098806    -0.21300
C1385       C  0.02748414  0.29205012  0.40797146    -0.22300
C1386       C  0.02562514  0.27043813  0.43794753    -0.22300
C1387       C  0.06714527  0.40106504  0.08086136    -0.22300
C1388       C  0.05058293  0.38014569  0.10901118    -0.22300
C1389       C  0.98795681  0.34116496  0.40220004    -0.17700
C1390       C  0.05767014  0.40983354  0.00447025    -0.17700
C1391       C  0.99209121  0.33766552  0.10533405    -0.17700
C1392       C  0.01130981  0.26610529  0.00071587    -0.17700
H1393       H  0.04697284  0.38803926  0.36952254     0.15200
H1394       H  0.07362789  0.42371949  0.42563636     0.15200
H1395       H  0.93376010  0.25004740  0.06061958     0.15200
H1396       H  0.91951836  0.28907995  0.11572422     0.15200
H1397       H  0.04556458  0.29069244  0.37777399     0.13500
H1398       H  0.04166993  0.24895735  0.43544877     0.13500
H1399       H  0.09119597  0.41900749  0.08801651     0.13500
H1400       H  0.05805798  0.37955190  0.14178911     0.13500
H1401       H  0.97684206  0.36003791  0.48257720     0.26800
H1402       H  0.03712742  0.31806752  0.03259313     0.26800
N1403       N  0.95588133  0.37192521  0.20636015    -0.36000
N1404       N  0.95907055  0.37250117  0.29538603    -0.56600
N1405       N  0.97326904  0.30892999  0.29843872    -0.36000
N1406       N  0.98550013  0.29743905  0.19549103    -0.56600
C1407       C  0.94353084  0.40003778  0.21088608     0.27600
C1408       C  0.95796842  0.36686568  0.16555760     0.27600
C1409       C  0.96125239  0.31547453  0.33779407     0.27600
C1410       C  0.95982414  0.28112494  0.29372739     0.27600
C1411       C  0.93926263  0.39921779  0.28819427     0.36200
C1412       C  0.95638688  0.36728735  0.33664002     0.36200
C1413       C  0.95490598  0.31585578  0.17357380     0.36200
C1414       C  0.95320391  0.28148916  0.22016503     0.36200
C1415       C  0.93447846  0.41224200  0.17164488    -0.21300
C1416       C  0.94450509  0.39144004  0.14325809    -0.21300
C1417       C  0.93646588  0.29254246  0.35719646    -0.21300
C1418       C  0.93627025  0.27070184  0.32991513    -0.21300
C1419       C  0.92046864  0.40995781  0.32515177    -0.22300
C1420       C  0.93155692  0.38986225  0.35566447    -0.22300
C1421       C  0.90422340  0.31276986  0.18617042    -0.22300
C1422       C  0.90308430  0.29067589  0.21500481    -0.22300
C1423       C  0.94088484  0.41454624  0.24927904    -0.17700
C1424       C  0.97185127  0.33991713  0.14960391    -0.17700
C1425       C  0.96779716  0.26637452  0.25647367    -0.17700
C1426       C  0.97289086  0.34147865  0.35685596    -0.17700
H1427       H  0.91973533  0.43335136  0.16316466     0.15200
H1428       H  0.94049984  0.39391888  0.11016008     0.15200
H1429       H  0.92000760  0.29153926  0.38802245     0.15200
H1430       H  0.91738553  0.25060292  0.33663066     0.15200
H1431       H  0.89897041  0.42962322  0.32999887     0.13500
H1432       H  0.92046335  0.39121122  0.38788058     0.13500
H1433       H  0.87192362  0.32596354  0.17642475     0.13500
H1434       H  0.86989418  0.28374089  0.23298769     0.13500
H1435       H  0.96586713  0.35665482  0.22890732     0.26800
H1436       H  0.99372577  0.32172161  0.27703039     0.26800
N1437       N  0.78660340  0.37151766  0.45121415    -0.36000
N1438       N  0.80184746  0.37047978  0.03811479    -0.56600
N1439       N  0.79385589  0.30716914  0.03960751    -0.36000
N1440       N  0.76264713  0.29593353  0.43590059    -0.56600
C1441       C  0.79979670  0.39920758  0.45710756     0.27600
C1442       C  0.78756001  0.36689950  0.41010583     0.27600
C1443       C  0.79802740  0.31223676  0.08016818     0.27600
C1444       C  0.80516794  0.27901058  0.03447126     0.27600
C1445       C  0.82216376  0.39695090  0.03196681     0.36200
C1446       C  0.80491483  0.36416723  0.07892777     0.36200
C1447       C  0.79401450  0.31586161  0.41757145     0.36200
C1448       C  0.79108951  0.28331570  0.46633994     0.36200
C1449       C  0.81121914  0.41186981  0.41835665    -0.21300
C1450       C  0.80303649  0.39158503  0.38894640    -0.21300
C1451       C  0.81536278  0.28732770  0.10060840    -0.21300
C1452       C  0.81986923  0.26629039  0.07167047    -0.21300
C1453       C  0.84084728  0.40654702  0.06902943    -0.22300
C1454       C  0.82946453  0.38589664  0.09868785    -0.22300
C1455       C  0.84144848  0.31559060  0.43628790    -0.22300
C1456       C  0.83943783  0.29518586  0.46726530    -0.22300
C1457       C  0.82001263  0.41343809  0.99427870    -0.17700
C1458       C  0.77735260  0.33971299  0.39319679    -0.17700
C1459       C  0.80083835  0.26552783  0.99617453    -0.17700
C1460       C  0.78610334  0.33886357  0.09858536    -0.17700
H1461       H  0.82697304  0.43282612  0.41100110     0.15200
H1462       H  0.81037975  0.39429364  0.35609506     0.15200
H1463       H  0.82470249  0.28460042  0.13290106     0.15200
H1464       H  0.83304583  0.24436613  0.07733178     0.15200
H1465       H  0.86179124  0.42601851  0.07442376     0.13500
H1466       H  0.83895482  0.38650611  0.13101862     0.13500
H1467       H  0.87260870  0.33043608  0.43020296     0.13500
H1468       H  0.86872925  0.29078831  0.48991251     0.13500
H1469       H  0.77517861  0.35618785  0.47327098     0.26800
H1470       H  0.77854794  0.32109611  0.01717786     0.26800
N1471       N  0.74526944  0.37065829  0.20095436    -0.36000
N1472       N  0.73544413  0.36772445  0.28930596    -0.56600
N1473       N  0.74628391  0.30563724  0.28996924    -0.36000
N1474       N  0.75626740  0.30696451  0.20099938    -0.56600
C1475       C  0.72075967  0.39626905  0.20617304     0.27600
C1476       C  0.74771402  0.36581766  0.15998604     0.27600
C1477       C  0.77045788  0.31206610  0.32523846     0.27600
C1478       C  0.76325698  0.27947418  0.27811516     0.27600
C1479       C  0.71104170  0.39335319  0.28328123     0.36200
C1480       C  0.73091011  0.36011443  0.32989443     0.36200
C1481       C  0.74589776  0.31488522  0.16189157     0.36200
C1482       C  0.73336645  0.28134888  0.20811645     0.36200
C1483       C  0.70635489  0.40712326  0.16737712    -0.21300
C1484       C  0.72354148  0.38805690  0.13851605    -0.21300
C1485       C  0.80449297  0.28965845  0.33489994    -0.21300
C1486       C  0.79942946  0.26903168  0.30549815    -0.21300
C1487       C  0.68846400  0.40135701  0.32049967    -0.22300
C1488       C  0.70103609  0.38040050  0.34980361    -0.22300
C1489       C  0.71403521  0.29532038  0.14422418    -0.22300
C1490       C  0.70577804  0.27393318  0.17366842    -0.22300
C1491       C  0.71019264  0.40957547  0.24485325    -0.17700
C1492       C  0.76507201  0.33986125  0.14249652    -0.17700
C1493       C  0.74304433  0.26473196  0.24439272    -0.17700
C1494       C  0.75891583  0.33690696  0.34896735    -0.17700
H1495       H  0.68239937  0.42555776  0.15984285     0.15200
H1496       H  0.71570652  0.38942290  0.10580892     0.15200
H1497       H  0.83073147  0.28774877  0.36006517     0.15200
H1498       H  0.82001417  0.24874329  0.30441117     0.15200
H1499       H  0.66421082  0.41984033  0.32633719     0.13500
H1500       H  0.68993960  0.38031159  0.38214831     0.13500
H1501       H  0.69829566  0.29652699  0.11350561     0.13500
H1502       H  0.68119187  0.25579373  0.16948972     0.13500
H1503       H  0.76311468  0.35763327  0.22314189     0.26800
H1504       H  0.71579906  0.31697056  0.27649901     0.26800
N1505       N  0.54695909  0.13264079  0.05417410    -0.36000
N1506       N  0.49180895  0.19688273  0.07000067    -0.56600
N1507       N  0.47746576  0.19091234  0.46830833    -0.36000
N1508       N  0.50258180  0.12955707  0.46599968    -0.56600
C1509       C  0.54859758  0.13603595  0.09557567     0.27600
C1510       C  0.55974298  0.10495705  0.04633903     0.27600
C1511       C  0.45822305  0.21675949  0.47949609     0.27600
C1512       C  0.45532854  0.18396379  0.43241370     0.27600
C1513       C  0.53251429  0.18681515  0.09127889     0.36200
C1514       C  0.51042388  0.21840754  0.04519253     0.36200
C1515       C  0.53340850  0.10591916  0.46991273     0.36200
C1516       C  0.50298580  0.13799267  0.42547205     0.36200
C1517       C  0.56601126  0.11093777  0.11458602    -0.21300
C1518       C  0.57383123  0.09146566  0.08372587    -0.21300
C1519       C  0.42291998  0.22650929  0.45106885    -0.21300
C1520       C  0.42004620  0.20557903  0.42191423    -0.21300
C1521       C  0.57705435  0.19987539  0.07689686    -0.22300
C1522       C  0.56262935  0.22127040  0.04921931    -0.22300
C1523       C  0.55441587  0.09974934  0.43144406    -0.22300
C1524       C  0.53557982  0.12006996  0.40358580    -0.22300
C1525       C  0.53195969  0.16131010  0.11541825    -0.17700
C1526       C  0.54037390  0.08907025  0.50730922    -0.17700
C1527       C  0.47056897  0.16005572  0.40800695    -0.17700
C1528       C  0.47647108  0.23250549  0.51263740    -0.17700
H1529       H  0.57298372  0.10713176  0.14714913     0.15200
H1530       H  0.58967729  0.07019502  0.08933797     0.15200
H1531       H  0.40198097  0.24670871  0.45114616     0.15200
H1532       H  0.39488605  0.20690448  0.39598346     0.15200
H1533       H  0.61569890  0.19399634  0.08530907     0.13500
H1534       H  0.58780794  0.23533386  0.03119203     0.13500
H1535       H  0.58177718  0.08295692  0.42404793     0.13500
H1536       H  0.54469954  0.12138930  0.37087237     0.13500
H1537       H  0.53518219  0.14845327  0.03295524     0.26800
H1538       H  0.50864698  0.18055892  0.48213136     0.26800
N1539       N  0.44993209  0.12706728  0.30409896    -0.36000
N1540       N  0.48347336  0.12836644  0.21728827    -0.56600
N1541       N  0.48916208  0.19209851  0.21839647    -0.36000
N1542       N  0.47554622  0.20037086  0.32193613    -0.56600
C1543       C  0.44479038  0.09869900  0.29710012     0.27600
C1544       C  0.44539214  0.13091758  0.34523178     0.27600
C1545       C  0.51812364  0.18633335  0.18451698     0.27600
C1546       C  0.49933094  0.21938842  0.22946475     0.27600
C1547       C  0.45672381  0.10333997  0.22010735     0.36200
C1548       C  0.48528811  0.13691290  0.17675939     0.36200
C1549       C  0.44043674  0.18208573  0.33856264     0.36200
C1550       C  0.45028722  0.21612971  0.29265178     0.36200
C1551       C  0.43356144  0.08476903  0.33517585    -0.21300
C1552       C  0.43462113  0.10506878  0.36526916    -0.21300
C1553       C  0.54861518  0.21022498  0.17534745    -0.21300
C1554       C  0.53599518  0.23119322  0.20314300    -0.21300
C1555       C  0.44069444  0.09647058  0.18092862    -0.22300
C1556       C  0.45856206  0.11758885  0.15378738    -0.22300
C1557       C  0.39404423  0.18540198  0.31846186    -0.22300
C1558       C  0.40011198  0.20746222  0.28971088    -0.22300
C1559       C  0.44888777  0.08601021  0.25722194    -0.17700
C1560       C  0.45273387  0.15775779  0.36354228    -0.17700
C1561       C  0.47492443  0.23340751  0.26261192    -0.17700
C1562       C  0.51282710  0.16125566  0.16025291    -0.17700
H1563       H  0.42364272  0.06268344  0.34217857     0.15200
H1564       H  0.42724509  0.10127887  0.39794792     0.15200
H1565       H  0.57814365  0.21258412  0.15204516     0.15200
H1566       H  0.55305333  0.25228527  0.20456614     0.15200
H1567       H  0.41676797  0.07878580  0.17249724     0.13500
H1568       H  0.45182309  0.11880367  0.12090410     0.13500
H1569       H  0.36031975  0.17221052  0.32296313     0.13500
H1570       H  0.37247392  0.21476144  0.26705082     0.13500
H1571       H  0.45799321  0.14348263  0.28254508     0.26800
H1572       H  0.46011492  0.17924436  0.23111020     0.26800
N1573       N  0.78100159  0.13089031  0.04674079    -0.36000
N1574       N  0.76921080  0.12977592  0.46001425    -0.56600
N1575       N  0.75257958  0.19236898  0.45499808    -0.36000
N1576       N  0.77533309  0.19307214  0.04257100    -0.56600
C1577       C  0.80511582  0.10493985  0.04309624     0.27600
C1578       C  0.78281272  0.13835848  0.08675071     0.27600
C1579       C  0.76547086  0.18523288  0.41629756     0.27600
C1580       C  0.77246761  0.21867350  0.46135540     0.27600
C1581       C  0.79381670  0.10460927  0.46783846     0.36200
C1582       C  0.77301469  0.13477742  0.41887056     0.36200
C1583       C  0.74875756  0.18787662  0.07828043     0.36200
C1584       C  0.76238036  0.21996866  0.02878163     0.36200
C1585       C  0.82327357  0.09609186  0.08151661    -0.21300
C1586       C  0.80960353  0.11721076  0.10888403    -0.21300
C1587       C  0.79541709  0.20636400  0.39777326    -0.21300
C1588       C  0.80001443  0.22752809  0.42607389    -0.21300
C1589       C  0.81714790  0.09513924  0.43163632    -0.22300
C1590       C  0.80352932  0.11419748  0.40057659    -0.22300
C1591       C  0.71777397  0.21173633  0.08641231    -0.22300
C1592       C  0.72650493  0.23193543  0.05514996    -0.22300
C1593       C  0.81154133  0.08948603  0.00582613    -0.17700
C1594       C  0.75591950  0.16236835  0.10357637    -0.17700
C1595       C  0.78605108  0.23396698  0.99398597    -0.17700
C1596       C  0.75256600  0.15919194  0.39852362    -0.17700
H1597       H  0.84564032  0.07698397  0.08911420     0.15200
H1598       H  0.81831712  0.11693378  0.14144127     0.15200
H1599       H  0.81247570  0.20641512  0.36713546     0.15200
H1600       H  0.82229722  0.24656941  0.42006641     0.15200
H1601       H  0.84282964  0.07696194  0.42776778     0.13500
H1602       H  0.81594373  0.11358502  0.36856416     0.13500
H1603       H  0.69088646  0.21488954  0.11145855     0.13500
H1604       H  0.70869091  0.25304852  0.05221334     0.13500
H1605       H  0.75839758  0.14148849  0.02484822     0.26800
H1606       H  0.72744002  0.18070335  0.47433494     0.26800
N1607       N  0.72394384  0.12652838  0.20669472    -0.36000
N1608       N  0.71928716  0.12709354  0.29544821    -0.56600
N1609       N  0.73961658  0.19035819  0.29329683    -0.36000
N1610       N  0.74893808  0.20316689  0.18662187    -0.56600
C1611       C  0.70410345  0.10000458  0.21383097     0.27600
C1612       C  0.72167249  0.13264331  0.16566393     0.27600
C1613       C  0.72439782  0.18424824  0.33237048     0.27600
C1614       C  0.72863091  0.21851542  0.28593208     0.27600
C1615       C  0.70462083  0.09933902  0.29145247     0.36200
C1616       C  0.72064427  0.13201813  0.33643264     0.36200
C1617       C  0.71821414  0.18329281  0.17017457     0.36200
C1618       C  0.71843489  0.21689434  0.21424337     0.36200
C1619       C  0.68739812  0.08991395  0.17609909    -0.21300
C1620       C  0.69941877  0.11028600  0.14577876    -0.21300
C1621       C  0.70051206  0.20822759  0.34906571    -0.21300
C1622       C  0.70373648  0.23011631  0.31972183    -0.21300
C1623       C  0.69292448  0.08759249  0.33052408    -0.22300
C1624       C  0.70275093  0.10818216  0.35855571    -0.22300
C1625       C  0.66938469  0.18434777  0.18745331    -0.22300
C1626       C  0.66950729  0.20562984  0.21528213    -0.22300
C1627       C  0.70148852  0.08480582  0.25308381    -0.17700
C1628       C  0.73539039  0.15961907  0.14771766    -0.17700
C1629       C  0.73634262  0.23242820  0.24732758    -0.17700
C1630       C  0.73540147  0.15827080  0.35402135    -0.17700
H1631       H  0.66575019  0.07077801  0.17041199     0.15200
H1632       H  0.68979739  0.10957316  0.11345775     0.15200
H1633       H  0.68287437  0.20977999  0.37939711     0.15200
H1634       H  0.68769750  0.25158788  0.32233723     0.15200
H1635       H  0.67605886  0.06714842  0.33916111     0.13500
H1636       H  0.69519944  0.10608114  0.39143856     0.13500
H1637       H  0.63819053  0.16973137  0.18237055     0.13500
H1638       H  0.63867851  0.21073327  0.23669195     0.13500
H1639       H  0.74165142  0.13973545  0.22744911     0.26800
H1640       H  0.76012125  0.17682433  0.27363965     0.26800
O1641       O  0.63303586  0.49266730  0.96867112    -0.73800
O1642       O  0.98613700  0.49924007  0.96931085    -0.73800
O1643       O  0.56519460  0.04816782  0.96759171    -0.73900
O1644       O  0.05818734  0.45695394  0.97065925    -0.73900
O1645       O  0.54221335  0.45570950  0.54261952    -0.73900
O1646       O  0.04750407  0.04106899  0.53238230    -0.73900
O1647       O  0.97526289  0.00004314  0.53403671    -0.73800
O1648       O  0.62082933  0.99982832  0.53630355    -0.73900
Ni1649     Ni  0.55996798  0.49461840  0.96559864     1.25400
Ni1650     Ni  0.04836413  0.99980528  0.53577606     1.25400
C1651       C  0.64586027  0.00171700  0.50205696     0.88400
C1652       C  0.95156083  0.00137287  0.49977420     0.88300
C1653       C  0.56355963  0.05973009  0.00307394     0.88300
C1654       C  0.03894347  0.44270565  0.50660979     0.88500
O1655       O  0.51361478  0.99374123  0.78761788    -0.73800
O1656       O  0.86809432  0.99904201  0.78923216    -0.73800
O1657       O  0.43823141  0.46301505  0.78875251    -0.73900
O1658       O  0.94258689  0.03998053  0.78696446    -0.73900
O1659       O  0.44359830  0.04023055  0.72154794    -0.73900
O1660       O  0.94563885  0.45983576  0.72570571    -0.73900
O1661       O  0.87207490  0.50123681  0.72220188    -0.73800
O1662       O  0.51816566  0.50054367  0.71642483    -0.73900
Ni1663     Ni  0.44050198  0.99412456  0.78916116     1.25400
Ni1664     Ni  0.94529779  0.50099027  0.71981959     1.25400
C1665       C  0.54100544  0.49960416  0.75119718     0.88400
C1666       C  0.84725296  0.50105411  0.75662226     0.88300
C1667       C  0.94362139  0.44567205  0.76023413     0.88300
C1668       C  0.94340762  0.05479804  0.75272030     0.88500
O1669       O  0.72145382  0.49667564  0.53700178    -0.73800
O1670       O  0.87151372  0.99943756  0.53480038    -0.73800
O1671       O  0.79826476  0.04138915  0.53961677    -0.73900
O1672       O  0.79814143  0.45734911  0.53356226    -0.73900
O1673       O  0.81536400  0.46154343  0.96469423    -0.73100
O1674       O  0.81479373  0.04433858  0.97209047    -0.73900
O1675       O  0.88286089  0.50406283  0.96935907    -0.73800
O1676       O  0.74241155  0.00401790  0.96687734    -0.73900
Ni1677     Ni  0.79839050  0.99968828  0.53789211     1.25400
Ni1678     Ni  0.80977899  0.50221720  0.96640676     1.25400
C1679       C  0.70166940  0.00168398  0.50206387     0.88400
C1680       C  0.89571023  0.00182004  0.50022943     0.88300
C1681       C  0.79718196  0.05696126  0.50623396     0.88300
C1682       C  0.80167819  0.44511260  0.49852999     0.88500
O1683       O  0.61920742  0.49597625  0.78745627    -0.73800
O1684       O  0.76386917  0.99687530  0.78960482    -0.73800
O1685       O  0.68756719  0.03688388  0.79041002    -0.73900
O1686       O  0.69556493  0.45507327  0.78918454    -0.73900
O1687       O  0.69982775  0.45698580  0.72087768    -0.73900
O1688       O  0.68966999  0.03942548  0.72220298    -0.73900
O1689       O  0.76885195  0.49976813  0.72165700    -0.73800
O1690       O  0.61971961  0.99691507  0.71990384    -0.73900
Ni1691     Ni  0.69055998  0.99541901  0.79164902     1.25400
Ni1692     Ni  0.69616239  0.49834383  0.71820524     1.25400
C1693       C  0.59700759  0.49729247  0.75243340     0.88400
C1694       C  0.79135255  0.49956009  0.75638057     0.88300
C1695       C  0.68778310  0.05212378  0.75676571     0.88300
C1696       C  0.69933081  0.44207972  0.75490252     0.88500
N1697       N  0.04651200  0.36919616  0.95788930    -0.36000
N1698       N  0.01126638  0.29955560  0.94212064    -0.56600
N1699       N  0.97983392  0.30755025  0.55111512    -0.36000
N1700       N  0.99602677  0.36979814  0.55088859    -0.56600
C1701       C  0.05250997  0.36519594  0.91692906     0.27600
C1702       C  0.06117566  0.39631635  0.96534504     0.27600
C1703       C  0.96289746  0.28131950  0.54072181     0.27600
C1704       C  0.95532298  0.31471647  0.58652500     0.27600
C1705       C  0.04843017  0.31436810  0.92165463     0.36200
C1706       C  0.03615983  0.28263929  0.97019702     0.36200
C1707       C  0.02216742  0.39482034  0.54572789     0.36200
C1708       C  0.99645200  0.36220358  0.59165716     0.36200
C1709       C  0.07299250  0.38928720  0.89757791    -0.21300
C1710       C  0.08000002  0.40869424  0.92819166    -0.21300
C1711       C  0.92699261  0.27149236  0.56927000    -0.21300
C1712       C  0.92109300  0.29288823  0.59753825    -0.21300
C1713       C  0.09594968  0.30802405  0.93862184    -0.22300
C1714       C  0.08823997  0.28727538  0.96900920    -0.22300
C1715       C  0.04122476  0.40247038  0.58363567    -0.22300
C1716       C  0.02526444  0.38185550  0.61243117    -0.22300
C1717       C  0.03908491  0.33961662  0.89806567    -0.17700
C1718       C  0.02934595  0.41042611  0.50718013    -0.17700
C1719       C  0.96735849  0.33912176  0.61015272    -0.17700
C1720       C  0.98076174  0.26614883  0.50631833    -0.17700
H1721       H  0.08354809  0.39208446  0.86527027     0.15200
H1722       H  0.09917973  0.42899598  0.92291765     0.15200
H1723       H  0.90625426  0.25142896  0.56901773     0.15200
H1724       H  0.89401901  0.29209314  0.62284479     0.15200
H1725       H  0.13191226  0.31844819  0.93088869     0.13500
H1726       H  0.11668856  0.27796978  0.98951688     0.13500
H1727       H  0.06595542  0.42023118  0.59016485     0.13500
H1728       H  0.03406791  0.38140761  0.64497142     0.13500
H1729       H  0.02974597  0.35428633  0.97835092     0.26800
H1730       H  0.01045561  0.31840873  0.53684210     0.26800
N1731       N  0.94594018  0.37079176  0.71481886    -0.36000
N1732       N  0.98414509  0.37147578  0.79878015    -0.56600
N1733       N  0.00063944  0.30843085  0.79612954    -0.36000
N1734       N  0.98420146  0.30063523  0.69681912    -0.56600
C1735       C  0.93731458  0.39904358  0.72168704     0.27600
C1736       C  0.93870306  0.36649785  0.67425112     0.27600
C1737       C  0.02890296  0.31517891  0.82904208     0.27600
C1738       C  0.01526931  0.28178223  0.78440731     0.27600
C1739       C  0.95747995  0.39683265  0.79710937     0.36200
C1740       C  0.98872927  0.36336981  0.83920438     0.36200
C1741       C  0.94457116  0.31533876  0.68006941     0.36200
C1742       C  0.96265871  0.28139851  0.72387515     0.36200
C1743       C  0.91984008  0.41194611  0.68479272    -0.21300
C1744       C  0.92226098  0.39158351  0.65490497    -0.21300
C1745       C  0.06390607  0.29279093  0.83665178    -0.21300
C1746       C  0.05429064  0.27143772  0.80910841    -0.21300
C1747       C  0.94458406  0.40465890  0.83695849    -0.22300
C1748       C  0.96341648  0.38339114  0.86333036    -0.22300
C1749       C  0.89864334  0.30697660  0.69874726    -0.22300
C1750       C  0.91008570  0.28443047  0.72551412    -0.22300
C1751       C  0.94517347  0.41297998  0.76005658    -0.17700
C1752       C  0.95024595  0.34035242  0.65520986    -0.17700
C1753       C  0.99030245  0.26634722  0.75398816    -0.17700
C1754       C  0.01893639  0.33940721  0.85429682    -0.17700
H1755       H  0.90509366  0.43342147  0.67883365     0.15200
H1756       H  0.91271549  0.39482337  0.62273767     0.15200
H1757       H  0.09340739  0.29147443  0.85954952     0.15200
H1758       H  0.07364236  0.25075183  0.80742270     0.15200
H1759       H  0.92170932  0.42292234  0.84639788     0.13500
H1760       H  0.95842978  0.38272701  0.89656468     0.13500
H1761       H  0.86116657  0.31654682  0.69378330     0.13500
H1762       H  0.88377989  0.27340681  0.74656815     0.13500
H1763       H  0.95916517  0.35498931  0.73540247     0.26800
H1764       H  0.96851883  0.31962372  0.78531282     0.26800
N1765       N  0.81270417  0.37148658  0.94888661    -0.36000
N1766       N  0.77939282  0.37058396  0.54116458    -0.56600
N1767       N  0.76400392  0.30800701  0.54360359    -0.36000
N1768       N  0.79018987  0.29458890  0.93244356    -0.56600
C1769       C  0.81918585  0.40000962  0.95467969     0.27600
C1770       C  0.81166283  0.36689311  0.90783294     0.27600
C1771       C  0.77081893  0.31306840  0.58382918     0.27600
C1772       C  0.77526396  0.27988892  0.53816274     0.27600
C1773       C  0.80195084  0.39648763  0.53460394     0.36200
C1774       C  0.78034387  0.36492608  0.58235960     0.36200
C1775       C  0.81990864  0.31557729  0.91474074     0.36200
C1776       C  0.81982634  0.28171171  0.96193125     0.36200
C1777       C  0.82535460  0.41338019  0.91560072    -0.21300
C1778       C  0.82046703  0.39252736  0.88636524    -0.21300
C1779       C  0.78950509  0.28821123  0.60359598    -0.21300
C1780       C  0.79224668  0.26718692  0.57467814    -0.21300
C1781       C  0.82047438  0.40604554  0.57171856    -0.22300
C1782       C  0.80632160  0.38629777  0.60178957    -0.22300
C1783       C  0.86790779  0.31553465  0.93245904    -0.22300
C1784       C  0.86763958  0.29433712  0.96247137    -0.22300
C1785       C  0.80249850  0.41265418  0.49643236    -0.17700
C1786       C  0.80124031  0.33948533  0.89135140    -0.17700
C1787       C  0.77143835  0.26670338  0.49976835    -0.17700
C1788       C  0.76118913  0.33976591  0.60253398    -0.17700
H1789       H  0.83427542  0.43548240  0.90756409     0.15200
H1790       H  0.82381185  0.39585117  0.85322093     0.15200
H1791       H  0.80155169  0.28559977  0.63528026     0.15200
H1792       H  0.80663886  0.24544410  0.57973259     0.15200
H1793       H  0.84348240  0.42478590  0.57691395     0.13500
H1794       H  0.81612669  0.38699753  0.63404338     0.13500
H1795       H  0.89818805  0.33099301  0.92662375     0.13500
H1796       H  0.89749067  0.29014797  0.98469934     0.13500
H1797       H  0.80633544  0.35540173  0.97114673     0.26800
H1798       H  0.74808444  0.32207984  0.52160266     0.26800
N1799       N  0.73461666  0.37112750  0.70686252    -0.36000
N1800       N  0.74085624  0.36788201  0.79458449    -0.56600
N1801       N  0.74871950  0.30518283  0.79408348    -0.36000
N1802       N  0.74226798  0.30732437  0.70589296    -0.56600
C1803       C  0.71085987  0.39648738  0.71482799     0.27600
C1804       C  0.72962122  0.36632832  0.66627068     0.27600
C1805       C  0.77946376  0.31121470  0.82603485     0.27600
C1806       C  0.76100172  0.27852281  0.78099647     0.27600
C1807       C  0.71511144  0.39333742  0.79180391     0.36200
C1808       C  0.74276688  0.35965622  0.83495517     0.36200
C1809       C  0.72661026  0.31569567  0.66816439     0.36200
C1810       C  0.71975161  0.28182181  0.71471227     0.36200
C1811       C  0.68922203  0.40722591  0.67827978    -0.21300
C1812       C  0.70162023  0.38833862  0.64766676    -0.21300
C1813       C  0.81302056  0.28796822  0.83227377    -0.21300
C1814       C  0.80057860  0.26719360  0.80446346    -0.21300
C1815       C  0.69841270  0.40068127  0.83113825    -0.22300
C1816       C  0.71561035  0.37933624  0.85823689    -0.22300
C1817       C  0.69186243  0.29655556  0.65321591    -0.22300
C1818       C  0.68703539  0.27502838  0.68297336    -0.22300
C1819       C  0.70743610  0.40971983  0.75413090    -0.17700
C1820       C  0.74424952  0.34054790  0.64745660    -0.17700
C1821       C  0.73472577  0.26453864  0.74918694    -0.17700
C1822       C  0.77397639  0.33644451  0.85030973    -0.17700
H1823       H  0.66406326  0.42566087  0.67397264     0.15200
H1824       H  0.68853303  0.38961606  0.61612230     0.15200
H1825       H  0.84385627  0.28573579  0.85391476     0.15200
H1826       H  0.81924248  0.24642026  0.80131363     0.15200
H1827       H  0.67488871  0.41883431  0.83992419     0.13500
H1828       H  0.70943895  0.37861522  0.89137030     0.13500
H1829       H  0.67212619  0.29810462  0.62409241     0.13500
H1830       H  0.66143148  0.25714440  0.68076113     0.13500
H1831       H  0.75690039  0.35825265  0.72642581     0.26800
H1832       H  0.71735912  0.31735410  0.78377163     0.26800
N1833       N  0.52489065  0.12962689  0.55443842    -0.36000
N1834       N  0.47847314  0.19844397  0.57068606    -0.56600
N1835       N  0.48196466  0.19078189  0.97044565    -0.36000
N1836       N  0.51389121  0.13106704  0.96699492    -0.56600
C1837       C  0.52610580  0.13343117  0.59571047     0.27600
C1838       C  0.53861342  0.10198340  0.54714102     0.27600
C1839       C  0.46151567  0.21604206  0.98268220     0.27600
C1840       C  0.45835524  0.18330604  0.93543943     0.27600
C1841       C  0.51709727  0.18463536  0.59043245     0.36200
C1842       C  0.50153164  0.21799296  0.54484827     0.36200
C1843       C  0.54854211  0.10909646  0.96968195     0.36200
C1844       C  0.51093526  0.13942787  0.92647557     0.36200
C1845       C  0.54326600  0.10851808  0.61535906    -0.21300
C1846       C  0.55177988  0.08881295  0.58498909    -0.21300
C1847       C  0.42370217  0.22494021  0.95584187    -0.21300
C1848       C  0.42077420  0.20399247  0.92656529    -0.21300
C1849       C  0.56398263  0.19359124  0.57441721    -0.22300
C1850       C  0.55417191  0.21579478  0.54667964    -0.22300
C1851       C  0.56830182  0.10384886  0.93051958    -0.22300
C1852       C  0.54504075  0.12316135  0.90341095    -0.22300
C1853       C  0.51105515  0.15932591  0.61467892    -0.17700
C1854       C  0.55885140  0.09219696  0.00643153    -0.17700
C1855       C  0.47467198  0.15998531  0.91024752    -0.17700
C1856       C  0.48221972  0.23233930  0.01424636    -0.17700
H1857       H  0.55053130  0.10510403  0.64794093     0.15200
H1858       H  0.56826547  0.06779064  0.59128788     0.15200
H1859       H  0.40148038  0.24468928  0.95678740     0.15200
H1860       H  0.39454399  0.20481646  0.90133187     0.15200
H1861       H  0.60095907  0.18411599  0.58127565     0.13500
H1862       H  0.58195174  0.22690111  0.52696266     0.13500
H1863       H  0.59727647  0.08813673  0.92221947     0.13500
H1864       H  0.55203483  0.12482247  0.87040074     0.13500
H1865       H  0.51293391  0.14534718  0.53315559     0.26800
H1866       H  0.51519953  0.18158216  0.98255637     0.26800
N1867       N  0.44760215  0.12558781  0.80731753    -0.36000
N1868       N  0.47153871  0.12736429  0.71867216    -0.56600
N1869       N  0.47468712  0.19117867  0.71867450    -0.36000
N1870       N  0.47071954  0.20010319  0.82400809    -0.56600
C1871       C  0.44614241  0.09693186  0.80069972     0.27600
C1872       C  0.44869071  0.12952344  0.84860667     0.27600
C1873       C  0.50141988  0.18530788  0.68370279     0.27600
C1874       C  0.48647207  0.21824505  0.72964022     0.27600
C1875       C  0.44623263  0.10197643  0.72339716     0.36200
C1876       C  0.46774999  0.13610010  0.67839754     0.36200
C1877       C  0.43833758  0.18075852  0.84196823     0.36200
C1878       C  0.44268070  0.21489822  0.79535583     0.36200
C1879       C  0.44434471  0.08269017  0.83950280    -0.21300
C1880       C  0.44560006  0.10321526  0.86924057    -0.21300
C1881       C  0.53240139  0.20884695  0.67361801    -0.21300
C1882       C  0.52228909  0.22972351  0.70218528    -0.21300
C1883       C  0.42533859  0.09506500  0.68580159    -0.22300
C1884       C  0.43879743  0.11657137  0.65757042    -0.22300
C1885       C  0.39077243  0.18253777  0.82339927    -0.22300
C1886       C  0.39334965  0.20455389  0.79419069    -0.22300
C1887       C  0.44445421  0.08432533  0.76060669    -0.17700
C1888       C  0.45437368  0.15682773  0.86647622    -0.17700
C1889       C  0.46442146  0.23229049  0.76382465    -0.17700
C1890       C  0.49394450  0.16022564  0.65994614    -0.17700
H1891       H  0.44194036  0.06011882  0.84768987     0.15200
H1892       H  0.44404500  0.09906467  0.90228028     0.15200
H1893       H  0.56065302  0.21102837  0.64921147     0.15200
H1894       H  0.54054587  0.25049876  0.70335629     0.15200
H1895       H  0.40152348  0.07689453  0.67925079     0.13500
H1896       H  0.42842947  0.11770146  0.62534227     0.13500
H1897       H  0.35870355  0.16823992  0.82895810     0.13500
H1898       H  0.36409560  0.21063235  0.77220407     0.13500
H1899       H  0.44876603  0.14217349  0.78507680     0.26800
H1900       H  0.44607158  0.17843872  0.73239744     0.26800
N1901       N  0.76182670  0.13058468  0.54837742    -0.36000
N1902       N  0.78658371  0.12943312  0.95909984    -0.56600
N1903       N  0.76934192  0.19214076  0.95269179    -0.36000
N1904       N  0.75395049  0.19304250  0.54517609    -0.56600
C1905       C  0.78538738  0.10446550  0.54435089     0.27600
C1906       C  0.76316148  0.13762401  0.58868229     0.27600
C1907       C  0.78011948  0.18381472  0.91418554     0.27600
C1908       C  0.79319769  0.21751267  0.95798633     0.27600
C1909       C  0.81057076  0.10403680  0.96642609     0.36200
C1910       C  0.78501768  0.13331637  0.91774084     0.36200
C1911       C  0.72787036  0.18706660  0.58087981     0.36200
C1912       C  0.73844520  0.21954809  0.53150111     0.36200
C1913       C  0.80274444  0.09511020  0.58278766    -0.21300
C1914       C  0.78924697  0.11603456  0.61049774    -0.21300
C1915       C  0.81229039  0.20337207  0.89429931    -0.21300
C1916       C  0.82105387  0.22466579  0.92206573    -0.21300
C1917       C  0.82913167  0.09351542  0.92907247    -0.22300
C1918       C  0.81201996  0.11184737  0.89824790    -0.22300
C1919       C  0.69470565  0.20994188  0.58916833    -0.22300
C1920       C  0.70142436  0.23037817  0.55793454    -0.22300
C1921       C  0.79289486  0.08950133  0.50666285    -0.17700
C1922       C  0.73693520  0.16176335  0.60608347    -0.17700
C1923       C  0.76143396  0.23457252  0.49726758    -0.17700
C1924       C  0.76371138  0.15777571  0.89820079    -0.17700
H1925       H  0.82485601  0.07589270  0.59023236     0.15200
H1926       H  0.79787563  0.11536272  0.64306975     0.15200
H1927       H  0.82866731  0.20195334  0.86350332     0.15200
H1928       H  0.84637602  0.24251839  0.91585718     0.15200
H1929       H  0.85381515  0.07509285  0.92390864     0.13500
H1930       H  0.82027501  0.11026657  0.86553540     0.13500
H1931       H  0.66729518  0.21203440  0.61415252     0.13500
H1932       H  0.68159738  0.25092631  0.55508525     0.13500
H1933       H  0.74031214  0.14167422  0.52622490     0.26800
H1934       H  0.74354599  0.18167957  0.97289889     0.26800
N1935       N  0.70894949  0.12676102  0.71042068    -0.36000
N1936       N  0.71431609  0.12630673  0.79885678    -0.56600
N1937       N  0.73496584  0.18927369  0.79542606    -0.36000
N1938       N  0.73716980  0.20260562  0.69025411    -0.56600
C1939       C  0.68880100  0.10038503  0.71836332     0.27600
C1940       C  0.70421449  0.13297748  0.66960901     0.27600
C1941       C  0.72628363  0.18298081  0.83569382     0.27600
C1942       C  0.72365437  0.21755585  0.78964763     0.27600
C1943       C  0.69772692  0.09885172  0.79557748     0.36200
C1944       C  0.72213016  0.13073099  0.83942217     0.36200
C1945       C  0.70440304  0.18375872  0.67376354     0.36200
C1946       C  0.70835850  0.21715999  0.71821301     0.36200
C1947       C  0.66886770  0.09061301  0.68154851    -0.21300
C1948       C  0.67955596  0.11095547  0.65075212    -0.21300
C1949       C  0.70592295  0.20694408  0.85501001    -0.21300
C1950       C  0.70471566  0.22899631  0.82585150    -0.21300
C1951       C  0.69105222  0.08679297  0.83520667    -0.22300
C1952       C  0.70636775  0.10684050  0.86257123    -0.22300
C1953       C  0.65610503  0.18601924  0.69177728    -0.22300
C1954       C  0.65863756  0.20704235  0.71993564    -0.22300
C1955       C  0.68978292  0.08474819  0.75729681    -0.17700
C1956       C  0.71895240  0.15958969  0.65102479    -0.17700
C1957       C  0.72811033  0.23216779  0.75121583    -0.17700
C1958       C  0.74013452  0.15681631  0.85573855    -0.17700
H1959       H  0.64674208  0.07145868  0.67698353     0.15200
H1960       H  0.66806194  0.11035524  0.61884356     0.15200
H1961       H  0.69335933  0.20838043  0.88689253     0.15200
H1962       H  0.69022914  0.25060426  0.83050092     0.15200
H1963       H  0.67453476  0.06643138  0.84480854     0.13500
H1964       H  0.70365744  0.10441978  0.89585045     0.13500
H1965       H  0.62358725  0.17230488  0.68690775     0.13500
H1966       H  0.62861845  0.21291101  0.74165847     0.13500
H1967       H  0.72895626  0.13964086  0.73017596     0.26800
H1968       H  0.75230513  0.17591560  0.77385331     0.26800
O1969       O  0.62300186  0.00355470  0.46747759    -0.73800
O1970       O  0.97579358  0.00224146  0.46514041    -0.73800
O1971       O  0.55002069  0.53644251  0.46434476    -0.73900
O1972       O  0.04841691  0.96026546  0.46616209    -0.73900
O1973       O  0.56136854  0.96051653  0.02918014    -0.73900
O1974       O  0.05806000  0.53846572  0.03603540    -0.73900
O1975       O  0.98560876  0.49755061  0.03820250    -0.73800
O1976       O  0.63084730  0.49482384  0.03735091    -0.73900
Ni1977     Ni  0.55019556  0.00349251  0.46434090     1.25400
Ni1978     Ni  0.05899640  0.49720714  0.03984368     1.25400
C1979       C  0.65597705  0.49441544  0.00307941     0.88400
C1980       C  0.96190693  0.49933713  0.00387725     0.88300
C1981       C  0.55028837  0.55140880  0.49685501     0.88300
C1982       C  0.06494991  0.94533186  0.00050575     0.88500
O1983       O  0.52057988  0.50264506  0.27966607    -0.73800
O1984       O  0.87225413  0.50229921  0.28100893    -0.73800
O1985       O  0.44919821  0.95470691  0.28159888    -0.73900
O1986       O  0.94621855  0.54285920  0.28024119    -0.73900
O1987       O  0.44831975  0.54493004  0.20741892    -0.73900
O1988       O  0.95173790  0.95872565  0.21891481    -0.73900
O1989       O  0.87692014  0.99945534  0.21836863    -0.73800
O1990       O  0.52309525  0.00068762  0.21621058    -0.73900
Ni1991     Ni  0.44764926  0.50558627  0.28366760     1.25400
Ni1992     Ni  0.95003929  0.00002886  0.21577776     1.25400
C1993       C  0.54626796  0.99803248  0.25067111     0.88400
C1994       C  0.85233588  0.99841709  0.25287232     0.88300
C1995       C  0.95075528  0.94384880  0.25291484     0.88300
C1996       C  0.94613556  0.55727604  0.24579924     0.88500
O1997       O  0.73937709  0.00106702  0.03572359    -0.73800
O1998       O  0.88122162  0.49954109  0.03811503    -0.73800
O1999       O  0.80590964  0.54080361  0.04043548    -0.73900
O2000       O  0.81155381  0.95864065  0.03208715    -0.73900
O2001       O  0.80125070  0.96276295  0.46262044    -0.73100
O2002       O  0.79026450  0.54220029  0.47130910    -0.73900
O2003       O  0.87197807  0.00447680  0.46608500    -0.73800
O2004       O  0.72277566  0.49851043  0.46810777    -0.73900
Ni2005     Ni  0.80816025  0.49877218  0.03980500     1.25400
Ni2006     Ni  0.79894646  0.00396419  0.46450247     1.25400
C2007       C  0.71187568  0.49697906  0.00305441     0.88400
C2008       C  0.90603667  0.50124853  0.00382790     0.88300
C2009       C  0.80500380  0.55574840  0.00635239     0.88300
C2010       C  0.81446776  0.94683498  0.99663185     0.88500
O2011       O  0.62505486  0.99564128  0.28576496    -0.73800
O2012       O  0.76943793  0.49781324  0.28042321    -0.73800
O2013       O  0.69375201  0.53744276  0.28102200    -0.73900
O2014       O  0.69956015  0.95442360  0.28507738    -0.73900
O2015       O  0.70059081  0.95736273  0.21675818    -0.73900
O2016       O  0.69760793  0.53956581  0.21283433    -0.73900
O2017       O  0.77354401  0.99799874  0.21821719    -0.73800
O2018       O  0.62524677  0.49849538  0.21050805    -0.73900
Ni2019     Ni  0.69637823  0.49625058  0.28249439     1.25400
Ni2020     Ni  0.70061901  0.99844603  0.21534376     1.25400
C2021       C  0.60220809  0.99751152  0.25111621     0.88400
C2022       C  0.79647482  0.99747925  0.25280106     0.88300
C2023       C  0.69482814  0.55242687  0.24730905     0.88300
C2024       C  0.70013011  0.94201882  0.25021367     0.88500
N2025       N  0.04371207  0.87057777  0.45422266    -0.36000
N2026       N  0.00846348  0.80116218  0.44018984    -0.56600
N2027       N  0.01329898  0.80774521  0.04222969    -0.36000
N2028       N  0.02796202  0.87193640  0.04070449    -0.56600
C2029       C  0.04942837  0.86617711  0.41326802     0.27600
C2030       C  0.05249909  0.89876234  0.46059930     0.27600
C2031       C  0.03086355  0.78031633  0.03809217     0.27600
C2032       C  0.01670241  0.81398696  0.08256662     0.27600
C2033       C  0.04637916  0.81512556  0.41952726     0.36200
C2034       C  0.03241014  0.78357346  0.46790533     0.36200
C2035       C  0.05568338  0.89643742  0.03578687     0.36200
C2036       C  0.02563510  0.86555848  0.08178381     0.36200
C2037       C  0.06508070  0.89110576  0.39304631    -0.21300
C2038       C  0.06809189  0.91154108  0.42274194    -0.21300
C2039       C  0.04826370  0.76983268  0.07603047    -0.21300
C2040       C  0.03987083  0.79115868  0.10374608    -0.21300
C2041       C  0.09367130  0.80773411  0.43602616    -0.22300
C2042       C  0.08485423  0.78683429  0.46615720    -0.22300
C2043       C  0.07338702  0.90442652  0.07397338    -0.22300
C2044       C  0.05427079  0.88507432  0.10287188    -0.22300
C2045       C  0.03802632  0.83993181  0.39491120    -0.17700
C2046       C  0.06144169  0.91292502  0.99797611    -0.17700
C2047       C  0.00310230  0.84055095  0.10025800    -0.17700
C2048       C  0.03471624  0.76652105  0.99960517    -0.17700
H2049       H  0.07428458  0.89411206  0.36050897     0.15200
H2050       H  0.08235419  0.93288632  0.41592078     0.15200
H2051       H  0.06969210  0.75046794  0.08327089     0.15200
H2052       H  0.05219833  0.79050240  0.13548537     0.15200
H2053       H  0.13030361  0.81719989  0.42778069     0.13500
H2054       H  0.11292160  0.77652967  0.48607720     0.13500
H2055       H  0.09926344  0.92165515  0.08063406     0.13500
H2056       H  0.06304499  0.88453682  0.13541728     0.13500
H2057       H  0.03158004  0.85493331  0.47567160     0.26800
H2058       H  0.99743073  0.82094013  0.01900639     0.26800
N2059       N  0.97674727  0.87161577  0.20518899    -0.36000
N2060       N  0.98806815  0.87008243  0.29408554    -0.56600
N2061       N  0.99413391  0.80765605  0.29446645    -0.36000
N2062       N  0.98109729  0.80973148  0.20605728    -0.56600
C2063       C  0.95692731  0.89800763  0.21284689     0.27600
C2064       C  0.97163204  0.86701067  0.16442504     0.27600
C2065       C  0.02312830  0.81352529  0.32746514     0.27600
C2066       C  0.00682197  0.78090336  0.28224460     0.27600
C2067       C  0.96177234  0.89527646  0.29007981     0.36200
C2068       C  0.98815745  0.86239288  0.33476168     0.36200
C2069       C  0.96830892  0.81566903  0.16666497     0.36200
C2070       C  0.96512760  0.78279896  0.21515246     0.36200
C2071       C  0.93739776  0.90966852  0.17600310    -0.21300
C2072       C  0.94750227  0.89031751  0.14553615    -0.21300
C2073       C  0.05580949  0.79016832  0.33531410    -0.21300
C2074       C  0.04462932  0.76935881  0.30732525    -0.21300
C2075       C  0.94333040  0.90303899  0.32876146    -0.22300
C2076       C  0.95990716  0.88224551  0.35686886    -0.22300
C2077       C  0.94113820  0.79305261  0.15103185    -0.22300
C2078       C  0.93898495  0.77207276  0.18202958    -0.22300
C2079       C  0.95547210  0.91143044  0.25210198    -0.17700
C2080       C  0.98384708  0.84095426  0.14502498    -0.17700
C2081       C  0.98308284  0.76677989  0.24966859    -0.17700
C2082       C  0.01660322  0.83858734  0.35155670    -0.17700
H2083       H  0.91515073  0.92918746  0.17117295     0.15200
H2084       H  0.93560034  0.89235960  0.11372981     0.15200
H2085       H  0.08522827  0.78802473  0.35820358     0.15200
H2086       H  0.06301619  0.74844000  0.30504361     0.15200
H2087       H  0.91874590  0.92107676  0.33626207     0.13500
H2088       H  0.95166498  0.88168776  0.38973475     0.13500
H2089       H  0.92576836  0.79160737  0.12034075     0.13500
H2090       H  0.92257666  0.75088092  0.17963492     0.13500
H2091       H  0.99711662  0.85822055  0.22535830     0.26800
H2092       H  0.96337646  0.81988556  0.28315779     0.26800
N2093       N  0.78923064  0.87201504  0.44818010    -0.36000
N2094       N  0.78723727  0.87251096  0.03710250    -0.56600
N2095       N  0.77372756  0.80874582  0.03808246    -0.36000
N2096       N  0.76143987  0.79546304  0.43292693    -0.56600
C2097       C  0.79714343  0.90050595  0.45336223     0.27600
C2098       C  0.78735699  0.86708921  0.40725509     0.27600
C2099       C  0.78009321  0.81414364  0.07836199     0.27600
C2100       C  0.78567426  0.78059971  0.03307735     0.27600
C2101       C  0.81245339  0.89766728  0.03108102     0.36200
C2102       C  0.78943133  0.86579608  0.07790820     0.36200
C2103       C  0.79291703  0.81566062  0.41543942     0.36200
C2104       C  0.79027072  0.78164516  0.46205459     0.36200
C2105       C  0.80287797  0.91352477  0.41406773    -0.21300
C2106       C  0.79682777  0.89249039  0.38531660    -0.21300
C2107       C  0.79982011  0.78968416  0.09846372    -0.21300
C2108       C  0.80290840  0.76838563  0.06989902    -0.21300
C2109       C  0.83292970  0.90595511  0.06821422    -0.22300
C2110       C  0.81802246  0.88590803  0.09780651    -0.22300
C2111       C  0.84076990  0.81451727  0.43325907    -0.22300
C2112       C  0.83902682  0.79308729  0.46281670    -0.22300
C2113       C  0.81313740  0.91435010  0.99340668    -0.17700
C2114       C  0.77665099  0.83957478  0.39117286    -0.17700
C2115       C  0.78264811  0.76679374  0.99487527    -0.17700
C2116       C  0.76877442  0.84070857  0.09706530    -0.17700
H2117       H  0.81238137  0.93545682  0.40553820     0.15200
H2118       H  0.80034292  0.89555585  0.35215297     0.15200
H2119       H  0.81176958  0.78752309  0.13024387     0.15200
H2120       H  0.81768161  0.74676034  0.07533948     0.15200
H2121       H  0.85747257  0.92404825  0.07358334     0.13500
H2122       H  0.82874238  0.88553644  0.12995489     0.13500
H2123       H  0.87222857  0.82919511  0.42742587     0.13500
H2124       H  0.86866609  0.78791113  0.48489815     0.13500
H2125       H  0.78338858  0.85606292  0.47088928     0.26800
H2126       H  0.75791514  0.82270392  0.01572999     0.26800
N2127       N  0.73456130  0.87114186  0.20171167    -0.36000
N2128       N  0.72902379  0.86706456  0.29029158    -0.56600
N2129       N  0.73982001  0.80516929  0.28958161    -0.36000
N2130       N  0.74388199  0.80792544  0.20014120    -0.56600
C2131       C  0.71232576  0.89710276  0.20861496     0.27600
C2132       C  0.73504785  0.86717693  0.16051215     0.27600
C2133       C  0.76595122  0.81161523  0.32391291     0.27600
C2134       C  0.75729123  0.77950776  0.27626855     0.27600
C2135       C  0.70460246  0.89268033  0.28553816     0.36200
C2136       C  0.72469199  0.85874544  0.33051340     0.36200
C2137       C  0.73137130  0.81608905  0.16148530     0.36200
C2138       C  0.72292160  0.78178792  0.20745666     0.36200
C2139       C  0.69719804  0.90915727  0.17066998    -0.21300
C2140       C  0.71194666  0.89043780  0.14053768    -0.21300
C2141       C  0.80184149  0.78975419  0.33160627    -0.21300
C2142       C  0.79570929  0.76931379  0.30191016    -0.21300
C2143       C  0.68219358  0.90003294  0.32306062    -0.22300
C2144       C  0.69467015  0.87844447  0.35143737    -0.22300
C2145       C  0.70000688  0.79602762  0.14437213    -0.22300
C2146       C  0.69445218  0.77418068  0.17356826    -0.22300
C2147       C  0.70454291  0.90969268  0.24812356    -0.17700
C2148       C  0.74961703  0.84125935  0.14160759    -0.17700
C2149       C  0.73542342  0.76491337  0.24304303    -0.17700
C2150       C  0.75475398  0.83613813  0.34833911    -0.17700
H2151       H  0.67432003  0.92828587  0.16463075     0.15200
H2152       H  0.70302154  0.89272227  0.10808610     0.15200
H2153       H  0.83016649  0.78829590  0.35545181     0.15200
H2154       H  0.81721700  0.74936871  0.29930516     0.15200
H2155       H  0.65874141  0.91871486  0.32961967     0.13500
H2156       H  0.68442268  0.87781987  0.38396637     0.13500
H2157       H  0.68326725  0.79702633  0.11400307     0.13500
H2158       H  0.67161752  0.75539176  0.16928977     0.13500
H2159       H  0.75238051  0.85738305  0.22297631     0.26800
H2160       H  0.70794844  0.81616237  0.27771551     0.26800
N2161       N  0.54451752  0.62607002  0.03475317    -0.36000
N2162       N  0.52036166  0.70504267  0.04756591    -0.56600
N2163       N  0.51387720  0.69195662  0.44459945    -0.36000
N2164       N  0.53360241  0.62663646  0.44766844    -0.56600
C2165       C  0.54883628  0.63290779  0.07462593     0.27600
C2166       C  0.56290163  0.59900986  0.03041540     0.27600
C2167       C  0.52820473  0.71972950  0.44899709     0.27600
C2168       C  0.53147085  0.68384948  0.40722380     0.27600
C2169       C  0.55042561  0.68327981  0.06257199     0.36200
C2170       C  0.55093748  0.72032110  0.02059043     0.36200
C2171       C  0.54758052  0.59858162  0.45392100     0.36200
C2172       C  0.53087361  0.63169245  0.40637079     0.36200
C2173       C  0.57054073  0.61029659  0.09688752    -0.21300
C2174       C  0.58042492  0.58900544  0.06887487    -0.21300
C2175       C  0.55781870  0.72847024  0.41483331    -0.21300
C2176       C  0.56076003  0.70558205  0.38914358    -0.21300
C2177       C  0.59900508  0.68444050  0.04493317    -0.22300
C2178       C  0.59961377  0.70814241  0.01917766    -0.22300
C2179       C  0.55776813  0.58660383  0.41574297    -0.22300
C2180       C  0.54737092  0.60742722  0.38601553    -0.22300
C2181       C  0.53470376  0.66022978  0.08899725    -0.17700
C2182       C  0.55099384  0.58401019  0.49359587    -0.17700
C2183       C  0.51731397  0.65862971  0.38719697    -0.17700
C2184       C  0.52036554  0.73484973  0.48614581    -0.17700
H2185       H  0.58020629  0.60973736  0.12925105     0.15200
H2186       H  0.60048068  0.56910208  0.07635058     0.15200
H2187       H  0.57842114  0.74810973  0.40885851     0.15200
H2188       H  0.58106703  0.70521046  0.35974334     0.15200
H2189       H  0.63017908  0.66916793  0.04954064     0.13500
H2190       H  0.63037129  0.71388080  0.99772582     0.13500
H2191       H  0.57392143  0.56576962  0.40891814     0.13500
H2192       H  0.55412521  0.60519337  0.35323738     0.13500
H2193       H  0.52527361  0.63918092  0.01347278     0.26800
H2194       H  0.49040201  0.67993856  0.46491552     0.26800
N2195       N  0.48650678  0.63120660  0.28207522    -0.36000
N2196       N  0.48670710  0.63378783  0.19331353    -0.56600
N2197       N  0.50791528  0.69581148  0.19284740    -0.36000
N2198       N  0.50880281  0.69353505  0.28218153    -0.56600
C2199       C  0.45923737  0.60718860  0.27518009     0.27600
C2200       C  0.48013335  0.63709067  0.32249838     0.27600
C2201       C  0.52812350  0.68891919  0.15553043     0.27600
C2202       C  0.52707107  0.72173656  0.20264198     0.27600
C2203       C  0.46442198  0.60753940  0.19853611     0.36200
C2204       C  0.48645925  0.64088420  0.15238588     0.36200
C2205       C  0.49355663  0.68776790  0.32145210     0.36200
C2206       C  0.49871668  0.72181613  0.27482604     0.36200
C2207       C  0.43354452  0.59877342  0.31151745    -0.21300
C2208       C  0.44702477  0.61754935  0.34136095    -0.21300
C2209       C  0.56101564  0.71100941  0.14239667    -0.21300
C2210       C  0.55901051  0.73187342  0.17141377    -0.21300
C2211       C  0.44768186  0.59854274  0.16064096    -0.22300
C2212       C  0.46090529  0.61968426  0.13178066    -0.22300
C2213       C  0.47056601  0.71195239  0.33818434    -0.22300
C2214       C  0.47485610  0.73380319  0.30877766    -0.22300
C2215       C  0.45771768  0.59235342  0.23736353    -0.17700
C2216       C  0.50125865  0.66083159  0.34198888    -0.17700
C2217       C  0.51498814  0.73682419  0.23873266    -0.17700
C2218       C  0.51527352  0.66391321  0.13311728    -0.17700
H2219       H  0.40615728  0.58159041  0.31602295     0.15200
H2220       H  0.43276525  0.61747545  0.37293508     0.15200
H2221       H  0.58594927  0.71251274  0.11580941     0.15200
H2222       H  0.58021855  0.75178391  0.17039954     0.15200
H2223       H  0.42625766  0.57947646  0.15408068     0.13500
H2224       H  0.45320134  0.61919783  0.09908818     0.13500
H2225       H  0.45324408  0.71372347  0.36859567     0.13500
H2226       H  0.46197657  0.75586915  0.31202454     0.13500
H2227       H  0.51251705  0.64146787  0.26200179     0.26800
H2228       H  0.47933106  0.68476902  0.20941876     0.26800
N2229       N  0.77208690  0.63068925  0.04440995    -0.36000
N2230       N  0.76514412  0.62813680  0.45741933    -0.56600
N2231       N  0.74943650  0.69139829  0.45208306    -0.36000
N2232       N  0.76421333  0.69356564  0.04016209    -0.56600
C2233       C  0.79611678  0.60462268  0.04129210     0.27600
C2234       C  0.77525711  0.63896440  0.08401425     0.27600
C2235       C  0.76474942  0.68330283  0.41424082     0.27600
C2236       C  0.77200938  0.71692997  0.45932774     0.27600
C2237       C  0.78707427  0.60221991  0.46531972     0.36200
C2238       C  0.76813034  0.63266395  0.41614671     0.36200
C2239       C  0.73776984  0.68768422  0.07549652     0.36200
C2240       C  0.74919015  0.72013423  0.02678839     0.36200
C2241       C  0.81569135  0.59657324  0.07953893    -0.21300
C2242       C  0.80297862  0.61826608  0.10628766    -0.21300
C2243       C  0.79916108  0.70294028  0.39735180    -0.21300
C2244       C  0.80415503  0.72413993  0.42589206    -0.21300
C2245       C  0.80841009  0.59175486  0.42885752    -0.22300
C2246       C  0.79596885  0.61100086  0.39772809    -0.22300
C2247       C  0.70447654  0.71051365  0.08366814    -0.22300
C2248       C  0.71206431  0.73112721  0.05291007    -0.22300
C2249       C  0.80125724  0.58838906  0.00457749    -0.17700
C2250       C  0.74759569  0.66279516  0.10080939    -0.17700
C2251       C  0.77262097  0.73471760  0.99277961    -0.17700
C2252       C  0.74979694  0.65763642  0.39593029    -0.17700
H2253       H  0.83818292  0.57756087  0.08739495     0.15200
H2254       H  0.81242595  0.61852990  0.13867894     0.15200
H2255       H  0.81914340  0.70175448  0.36790242     0.15200
H2256       H  0.82996649  0.74201289  0.42199517     0.15200
H2257       H  0.83255724  0.57298344  0.42466683     0.13500
H2258       H  0.80775985  0.60979994  0.36562031     0.13500
H2259       H  0.67666151  0.71252752  0.10830501     0.13500
H2260       H  0.69241484  0.75172322  0.04995204     0.13500
H2261       H  0.74852792  0.64078168  0.02265863     0.26800
H2262       H  0.72147204  0.68094335  0.47020063     0.26800
N2263       N  0.71672902  0.62696998  0.20275052    -0.36000
N2264       N  0.71545029  0.62676140  0.29161158    -0.56600
N2265       N  0.73317350  0.69004628  0.29107847    -0.36000
N2266       N  0.74134903  0.70385565  0.18432690    -0.56600
C2267       C  0.69757460  0.60035404  0.20926881     0.27600
C2268       C  0.71394829  0.63336777  0.16201576     0.27600
C2269       C  0.72135404  0.68384597  0.33085954     0.27600
C2270       C  0.72295161  0.71839648  0.28461829     0.27600
C2271       C  0.69953915  0.59923948  0.28675817     0.36200
C2272       C  0.71631803  0.63137878  0.33280049     0.36200
C2273       C  0.71073357  0.68389938  0.16783197     0.36200
C2274       C  0.71114563  0.71695130  0.21288523     0.36200
C2275       C  0.68065490  0.59044264  0.17149760    -0.21300
C2276       C  0.69206930  0.61114442  0.14159434    -0.21300
C2277       C  0.70020559  0.70804674  0.34910211    -0.21300
C2278       C  0.70175097  0.73006280  0.31990864    -0.21300
C2279       C  0.68660614  0.58735317  0.32544104    -0.22300
C2280       C  0.69683664  0.60755985  0.35409128    -0.22300
C2281       C  0.66237665  0.68435723  0.18608776    -0.22300
C2282       C  0.66267439  0.70518556  0.21455469    -0.22300
C2283       C  0.69621964  0.58493986  0.24803082    -0.17700
C2284       C  0.72783409  0.66030348  0.14487325    -0.17700
C2285       C  0.72914042  0.73256131  0.24592321    -0.17700
C2286       C  0.73196710  0.65734111  0.35137396    -0.17700
H2287       H  0.65960227  0.57113322  0.16555883     0.15200
H2288       H  0.68273747  0.61064018  0.10919753     0.15200
H2289       H  0.68477246  0.70963757  0.38016858     0.15200
H2290       H  0.68713737  0.75170981  0.32387815     0.15200
H2291       H  0.66852529  0.56707217  0.33319611     0.13500
H2292       H  0.68856129  0.60526572  0.38684774     0.13500
H2293       H  0.63149012  0.66948547  0.18133294     0.13500
H2294       H  0.63228509  0.70971755  0.23664719     0.13500
H2295       H  0.73464434  0.63999517  0.22354445     0.26800
H2296       H  0.75129206  0.67644165  0.27017702     0.26800
O2297       O  0.63840164  0.00609723  0.96530869    -0.73800
O2298       O  0.99136021  0.00165146  0.96984314    -0.73800
O2299       O  0.56385915  0.53589553  0.96347896    -0.73900
O2300       O  0.06560075  0.96101410  0.96747342    -0.73900
O2301       O  0.54991666  0.95766714  0.53266098    -0.73900
O2302       O  0.04651219  0.53926319  0.53554441    -0.73900
O2303       O  0.97105395  0.49995807  0.53793031    -0.73800
O2304       O  0.61787320  0.49580636  0.53734607    -0.73900
Ni2305     Ni  0.56528606  0.00688400  0.96182991     1.25400
Ni2306     Ni  0.04410395  0.49800093  0.54042597     1.25400
C2307       C  0.64236912  0.49469681  0.50287585     0.88400
C2308       C  0.94790742  0.50110310  0.50339353     0.88300
C2309       C  0.56356359  0.55081629  0.99605317     0.88300
C2310       C  0.04901594  0.94530952  0.50016320     0.88500
O2311       O  0.51583354  0.50113786  0.78522919    -0.73800
O2312       O  0.87043930  0.50181916  0.79102948    -0.73800
O2313       O  0.44077057  0.95301087  0.78344843    -0.73900
O2314       O  0.94506468  0.54292246  0.78699976    -0.73900
O2315       O  0.44669599  0.54390501  0.71098761    -0.73900
O2316       O  0.94149513  0.95879882  0.72093348    -0.73900
O2317       O  0.86892064  0.00081783  0.72034100    -0.73800
O2318       O  0.51608067  0.99805867  0.71884358    -0.73900
Ni2319     Ni  0.44293343  0.50429582  0.78677777     1.25400
Ni2320     Ni  0.94215946  0.00005764  0.71745896     1.25400
C2321       C  0.53880973  0.99563052  0.75348947     0.88400
C2322       C  0.84451363  0.99975606  0.75495061     0.88300
C2323       C  0.94035580  0.94366830  0.75463233     0.88300
C2324       C  0.94602648  0.55679388  0.75195268     0.88500
O2325       O  0.72525557  0.00021427  0.53636178    -0.73800
O2326       O  0.86730841  0.50016008  0.53750980    -0.73800
O2327       O  0.79079578  0.54022925  0.53962714    -0.73900
O2328       O  0.79836815  0.95852800  0.53075806    -0.73900
O2329       O  0.81649818  0.96284602  0.96401592    -0.73100
O2330       O  0.80443538  0.54270630  0.97221330    -0.73900
O2331       O  0.88849533  0.00342089  0.96930449    -0.73800
O2332       O  0.73656986  0.49921698  0.96861485    -0.73900
Ni2333     Ni  0.79434702  0.49850044  0.53943792     1.25400
Ni2334     Ni  0.81566200  0.00384544  0.96576464     1.25400
C2335       C  0.69820614  0.49646445  0.50258252     0.88400
C2336       C  0.89205438  0.50199703  0.50317676     0.88300
C2337       C  0.79012322  0.55516683  0.50564604     0.88300
C2338       C  0.80078225  0.94671723  0.49534674     0.88500
O2339       O  0.61749945  0.99427488  0.78878528    -0.73800
O2340       O  0.76591557  0.49784109  0.79053294    -0.73800
O2341       O  0.68976763  0.53797277  0.78950873    -0.73900
O2342       O  0.69392283  0.95410414  0.78778352    -0.73900
O2343       O  0.69635084  0.95710141  0.71945721    -0.73900
O2344       O  0.69308785  0.53947264  0.72126328    -0.73900
O2345       O  0.76548791  0.99976388  0.72073181    -0.73800
O2346       O  0.62292079  0.49732367  0.71860918    -0.73900
Ni2347     Ni  0.69241136  0.49654972  0.79164824     1.25400
Ni2348     Ni  0.69272710  0.99835338  0.71818933     1.25400
C2349       C  0.59465056  0.99545181  0.75411516     0.88400
C2350       C  0.78863538  0.99886955  0.75519086     0.88300
C2351       C  0.68993182  0.55266770  0.75542013     0.88300
C2352       C  0.69641835  0.94170453  0.75295630     0.88500
N2353       N  0.04921755  0.87172928  0.95228932    -0.36000
N2354       N  0.02100471  0.79843292  0.93874684    -0.56600
N2355       N  0.99822404  0.80846631  0.54203065    -0.36000
N2356       N  0.01022579  0.87159634  0.54119044    -0.56600
C2357       C  0.04743862  0.86774821  0.91112012     0.27600
C2358       C  0.05898362  0.89986770  0.95832482     0.27600
C2359       C  0.98307730  0.78214626  0.53026098     0.27600
C2360       C  0.96852276  0.81603463  0.57457454     0.27600
C2361       C  0.05274129  0.81644041  0.91686196     0.36200
C2362       C  0.05156094  0.78427428  0.96642275     0.36200
C2363       C  0.03737388  0.89646046  0.53745269     0.36200
C2364       C  0.00742024  0.86390127  0.58204919     0.36200
C2365       C  0.05877176  0.89309899  0.88996021    -0.21300
C2366       C  0.06666819  0.91327182  0.91936093    -0.21300
C2367       C  0.94255902  0.77279350  0.55474888    -0.21300
C2368       C  0.93240541  0.79455164  0.58195578    -0.21300
C2369       C  0.10217055  0.81425218  0.93202565    -0.22300
C2370       C  0.10137067  0.79384316  0.96332142    -0.22300
C2371       C  0.05280362  0.90415452  0.57641914    -0.22300
C2372       C  0.03454764  0.88352781  0.60429794    -0.22300
C2373       C  0.03629256  0.84100807  0.89369015    -0.17700
C2374       C  0.04704018  0.91262414  0.49952197    -0.17700
C2375       C  0.97764688  0.84044058  0.59914179    -0.17700
C2376       C  0.00626302  0.76711843  0.49772525    -0.17700
H2377       H  0.06276649  0.89655074  0.85688384     0.15200
H2378       H  0.07865383  0.93483267  0.91111099     0.15200
H2379       H  0.92128259  0.75305499  0.55212961     0.15200
H2380       H  0.90063289  0.79463133  0.60335543     0.15200
H2381       H  0.13453206  0.82757113  0.92300206     0.13500
H2382       H  0.13294712  0.78766524  0.98307717     0.13500
H2383       H  0.07669665  0.92201148  0.58422267     0.13500
H2384       H  0.04091343  0.88303552  0.63723307     0.13500
H2385       H  0.04288504  0.85550929  0.97452206     0.26800
H2386       H  0.03060348  0.81930434  0.53072814     0.26800
N2387       N  0.94987227  0.86973125  0.70563567    -0.36000
N2388       N  0.98165827  0.87026082  0.79285318    -0.56600
N2389       N  0.00128083  0.80885515  0.79105209    -0.36000
N2390       N  0.99156231  0.80414425  0.69243556    -0.56600
C2391       C  0.93953384  0.89778124  0.71321173     0.27600
C2392       C  0.94643422  0.86622736  0.66435473     0.27600
C2393       C  0.02862025  0.81575828  0.82437137     0.27600
C2394       C  0.01862586  0.78316327  0.77801581     0.27600
C2395       C  0.95168249  0.89432384  0.78996320     0.36200
C2396       C  0.98367345  0.86206037  0.83350315     0.36200
C2397       C  0.95435067  0.81483929  0.66782345     0.36200
C2398       C  0.96908553  0.78308436  0.71589975     0.36200
C2399       C  0.92513691  0.91127724  0.67582157    -0.21300
C2400       C  0.93056220  0.89154869  0.64528476    -0.21300
C2401       C  0.06571737  0.79437833  0.83119018    -0.21300
C2402       C  0.05845087  0.77344038  0.80241595    -0.21300
C2403       C  0.93377912  0.90107766  0.82911907    -0.22300
C2404       C  0.95344088  0.88059320  0.85643980    -0.22300
C2405       C  0.90760465  0.80275302  0.67917641    -0.22300
C2406       C  0.91757914  0.78110933  0.70788694    -0.22300
C2407       C  0.94267399  0.91100569  0.75275763    -0.17700
C2408       C  0.95926843  0.84054835  0.64424418    -0.17700
C2409       C  0.99403458  0.76777940  0.74752411    -0.17700
C2410       C  0.01607549  0.83945078  0.84979990    -0.17700
H2411       H  0.91004054  0.93265355  0.66979695     0.15200
H2412       H  0.92279813  0.89530139  0.61284724     0.15200
H2413       H  0.09507005  0.79343108  0.85422066     0.15200
H2414       H  0.07975197  0.75342041  0.79980725     0.15200
H2415       H  0.90794462  0.91842991  0.83728474     0.13500
H2416       H  0.94643819  0.87956596  0.88947190     0.13500
H2417       H  0.87019824  0.80946963  0.66843366     0.13500
H2418       H  0.88977521  0.76748031  0.72387593     0.13500
H2419       H  0.96119230  0.85370454  0.72672969     0.26800
H2420       H  0.96783083  0.81899827  0.78072005     0.26800
N2421       N  0.80382204  0.87229402  0.94831517    -0.36000
N2422       N  0.77744384  0.87199493  0.53728368    -0.56600
N2423       N  0.76399275  0.80800218  0.53930440    -0.36000
N2424       N  0.77470448  0.79624821  0.93182050    -0.56600
C2425       C  0.80959685  0.90095505  0.95388158     0.27600
C2426       C  0.80037778  0.86770703  0.90727964     0.27600
C2427       C  0.77187577  0.81349354  0.57938313     0.27600
C2428       C  0.77488985  0.77969746  0.53421600     0.27600
C2429       C  0.80100585  0.89763480  0.53052846     0.36200
C2430       C  0.78119260  0.86550090  0.57808576     0.36200
C2431       C  0.80654531  0.81618982  0.91433739     0.36200
C2432       C  0.80312566  0.78248487  0.96113908     0.36200
C2433       C  0.81251033  0.91441075  0.91467011    -0.21300
C2434       C  0.80688879  0.89351046  0.88570616    -0.21300
C2435       C  0.79127645  0.78878419  0.59913894    -0.21300
C2436       C  0.79304276  0.76742528  0.57063629    -0.21300
C2437       C  0.82218030  0.90639739  0.56712402    -0.22300
C2438       C  0.80926541  0.88623572  0.59711960    -0.22300
C2439       C  0.85438578  0.81482473  0.93217911    -0.22300
C2440       C  0.85205055  0.79361934  0.96207773    -0.22300
C2441       C  0.80044528  0.91414547  0.49260968    -0.17700
C2442       C  0.79014996  0.84024525  0.89066646    -0.17700
C2443       C  0.77040804  0.76584427  0.49614767    -0.17700
C2444       C  0.76209294  0.84030818  0.59820685    -0.17700
H2445       H  0.81904264  0.93666391  0.90606446     0.15200
H2446       H  0.80830634  0.89701695  0.85254071     0.15200
H2447       H  0.80399471  0.78639573  0.63064187     0.15200
H2448       H  0.80745945  0.74569645  0.57584792     0.15200
H2449       H  0.84609881  0.92485083  0.57186337     0.13500
H2450       H  0.82099122  0.88623808  0.62899604     0.13500
H2451       H  0.88605515  0.82936028  0.92635482     0.13500
H2452       H  0.88141339  0.78837768  0.98438358     0.13500
H2453       H  0.80091495  0.85608988  0.97097218     0.26800
H2454       H  0.74788825  0.82199738  0.51725545     0.26800
N2455       N  0.73379121  0.87136011  0.70361831    -0.36000
N2456       N  0.73524285  0.86776611  0.79215966    -0.56600
N2457       N  0.74650550  0.80569847  0.79086770    -0.36000
N2458       N  0.74388899  0.80797367  0.70187993    -0.56600
C2459       C  0.70997292  0.89677413  0.71141815     0.27600
C2460       C  0.73131415  0.86707944  0.66256298     0.27600
C2461       C  0.77515761  0.81223898  0.82383974     0.27600
C2462       C  0.76229838  0.77978292  0.77714515     0.27600
C2463       C  0.70836013  0.89268443  0.78855528     0.36200
C2464       C  0.73406881  0.85927218  0.83241198     0.36200
C2465       C  0.72825670  0.81624764  0.66411732     0.36200
C2466       C  0.72231733  0.78218353  0.71047591     0.36200
C2467       C  0.69087513  0.90811055  0.67430057    -0.21300
C2468       C  0.70479365  0.88956085  0.64363291    -0.21300
C2469       C  0.81109610  0.79019306  0.83014717    -0.21300
C2470       C  0.80237014  0.76955649  0.80109207    -0.21300
C2471       C  0.68785878  0.89940524  0.82706161    -0.22300
C2472       C  0.70398336  0.87816959  0.85473251    -0.22300
C2473       C  0.69432475  0.79672130  0.64896129    -0.22300
C2474       C  0.69021598  0.77502335  0.67852643    -0.22300
C2475       C  0.70384466  0.90944654  0.75105988    -0.17700
C2476       C  0.74559198  0.84119075  0.64340697    -0.17700
C2477       C  0.73757862  0.76516277  0.74508439    -0.17700
C2478       C  0.76580041  0.83686051  0.84866769    -0.17700
H2479       H  0.66603716  0.92661905  0.66948875     0.15200
H2480       H  0.69312423  0.89128817  0.61173935     0.15200
H2481       H  0.84090004  0.78871330  0.85281565     0.15200
H2482       H  0.82326149  0.74946564  0.79781273     0.15200
H2483       H  0.66287955  0.91722199  0.83475885     0.13500
H2484       H  0.69552476  0.87709341  0.88757041     0.13500
H2485       H  0.67483758  0.79804254  0.61971574     0.13500
H2486       H  0.66560299  0.75674972  0.67592711     0.13500
H2487       H  0.75412979  0.85807637  0.72400360     0.26800
H2488       H  0.71404776  0.81682255  0.78036590     0.26800
N2489       N  0.53283556  0.62660515  0.53554573    -0.36000
N2490       N  0.50700749  0.70446026  0.54828846    -0.56600
N2491       N  0.52544743  0.69168065  0.94522370    -0.36000
N2492       N  0.54373957  0.62608826  0.94764909    -0.56600
C2493       C  0.53655556  0.63306142  0.57567104     0.27600
C2494       C  0.55126486  0.59957135  0.53101678     0.27600
C2495       C  0.53782257  0.71993822  0.94809264     0.27600
C2496       C  0.53842157  0.68373819  0.90662831     0.27600
C2497       C  0.53770045  0.68354915  0.56493299     0.36200
C2498       C  0.53782728  0.71996770  0.52174350     0.36200
C2499       C  0.55846873  0.59811021  0.95338598     0.36200
C2500       C  0.53918860  0.63128767  0.90658382     0.36200
C2501       C  0.55861482  0.61038976  0.59762223    -0.21300
C2502       C  0.56879642  0.58936031  0.56935656    -0.21300
C2503       C  0.56134439  0.72933959  0.91132677    -0.21300
C2504       C  0.56301014  0.70627400  0.88588460    -0.21300
C2505       C  0.58676821  0.68525524  0.54830068    -0.22300
C2506       C  0.58711337  0.70858448  0.52181866    -0.22300
C2507       C  0.56747679  0.58635044  0.91488051    -0.22300
C2508       C  0.55537771  0.60722145  0.88560973    -0.22300
C2509       C  0.52192878  0.66012641  0.59070261    -0.17700
C2510       C  0.56303542  0.58344511  0.99294084    -0.17700
C2511       C  0.52330605  0.65802171  0.88805172    -0.17700
C2512       C  0.53276573  0.73531470  0.98539075    -0.17700
H2513       H  0.56823323  0.60958925  0.63000341     0.15200
H2514       H  0.58894165  0.56943798  0.57658273     0.15200
H2515       H  0.57861196  0.74967189  0.90309896     0.15200
H2516       H  0.57918414  0.70633896  0.85488491     0.15200
H2517       H  0.61838792  0.67044981  0.55390289     0.13500
H2518       H  0.61837178  0.71458502  0.50100569     0.13500
H2519       H  0.58357074  0.56561548  0.90745196     0.13500
H2520       H  0.56053429  0.60515129  0.85263231     0.13500
H2521       H  0.51411840  0.63985276  0.51405005     0.26800
H2522       H  0.50559995  0.67922570  0.96747869     0.26800
N2523       N  0.48487705  0.62987558  0.78506571    -0.36000
N2524       N  0.47888855  0.63288688  0.69627907    -0.56600
N2525       N  0.49610399  0.69484160  0.69522271    -0.36000
N2526       N  0.50171883  0.69223561  0.78448495    -0.56600
C2527       C  0.45739490  0.60580296  0.77920134     0.27600
C2528       C  0.48180909  0.63537905  0.82581984     0.27600
C2529       C  0.51677679  0.68813108  0.65800932     0.27600
C2530       C  0.51495754  0.72072745  0.70531430     0.27600
C2531       C  0.45749970  0.60649178  0.70230515     0.36200
C2532       C  0.47674612  0.63987713  0.65535449     0.36200
C2533       C  0.49030078  0.68612548  0.82438179     0.36200
C2534       C  0.48835562  0.72008790  0.77771646     0.36200
C2535       C  0.43477822  0.59700461  0.81671832    -0.21300
C2536       C  0.45063806  0.61552335  0.84611508    -0.21300
C2537       C  0.54985717  0.71023292  0.64532970    -0.21300
C2538       C  0.54751798  0.73096872  0.67456618    -0.21300
C2539       C  0.43925211  0.59729176  0.66494589    -0.22300
C2540       C  0.45090226  0.61841707  0.63555913    -0.22300
C2541       C  0.46633898  0.70953921  0.84241148    -0.22300
C2542       C  0.46592625  0.73139927  0.81279453    -0.22300
C2543       C  0.45351164  0.59118779  0.74131294    -0.17700
C2544       C  0.50274617  0.65959729  0.84414732    -0.17700
C2545       C  0.50219007  0.73551891  0.74143591    -0.17700
C2546       C  0.50408079  0.66322702  0.63542843    -0.17700
H2547       H  0.40766261  0.57983334  0.82245599     0.15200
H2548       H  0.43875818  0.61524734  0.87830150     0.15200
H2549       H  0.57522051  0.71172852  0.61900153     0.15200
H2550       H  0.56904331  0.75078284  0.67408962     0.15200
H2551       H  0.41804056  0.57800927  0.65911569     0.13500
H2552       H  0.44201461  0.61775256  0.60309087     0.13500
H2553       H  0.45178915  0.71084470  0.87378805     0.13500
H2554       H  0.45157667  0.75311638  0.81677911     0.13500
H2555       H  0.50887896  0.64053290  0.76381204     0.26800
H2556       H  0.46736293  0.68375185  0.71158687     0.26800
N2557       N  0.75657348  0.62968069  0.54557796    -0.36000
N2558       N  0.78008154  0.62894023  0.95744518    -0.56600
N2559       N  0.76159171  0.69244675  0.95117105    -0.36000
N2560       N  0.74983854  0.69222311  0.54190692    -0.56600
C2561       C  0.77991311  0.60343894  0.54188774     0.27600
C2562       C  0.75905799  0.63722862  0.58567882     0.27600
C2563       C  0.77699049  0.68375366  0.91381744     0.27600
C2564       C  0.78420784  0.71803555  0.95766976     0.27600
C2565       C  0.80045569  0.60253869  0.96480498     0.36200
C2566       C  0.77951928  0.63302932  0.91608745     0.36200
C2567       C  0.72457177  0.68682318  0.57806980     0.36200
C2568       C  0.73635919  0.71917820  0.52883973     0.36200
C2569       C  0.79843357  0.59462267  0.58018421    -0.21300
C2570       C  0.78584430  0.61593017  0.60750345    -0.21300
C2571       C  0.81122557  0.70320694  0.89612007    -0.21300
C2572       C  0.81611856  0.72493072  0.92395257    -0.21300
C2573       C  0.81780925  0.59139308  0.92743574    -0.22300
C2574       C  0.80371524  0.61055252  0.89666203    -0.22300
C2575       C  0.69356427  0.71044089  0.58721480    -0.22300
C2576       C  0.70121857  0.73087976  0.55614518    -0.22300
C2577       C  0.78606731  0.58773896  0.50467928    -0.17700
C2578       C  0.73323017  0.66153247  0.60315739    -0.17700
C2579       C  0.76006912  0.73361640  0.49449951    -0.17700
C2580       C  0.76080825  0.65810936  0.89643793    -0.17700
H2581       H  0.82068418  0.57547650  0.58775045     0.15200
H2582       H  0.79529492  0.61565398  0.63991024     0.15200
H2583       H  0.83099818  0.70162841  0.86662257     0.15200
H2584       H  0.84156887  0.74292965  0.91944738     0.15200
H2585       H  0.84044840  0.57222836  0.92204888     0.13500
H2586       H  0.81225967  0.60876847  0.86401809     0.13500
H2587       H  0.66719097  0.71309135  0.61274294     0.13500
H2588       H  0.68304882  0.75193032  0.55392283     0.13500
H2589       H  0.73453855  0.64050881  0.52346372     0.26800
H2590       H  0.73350511  0.68221444  0.96948198     0.26800
N2591       N  0.70541829  0.62731972  0.70779510    -0.36000
N2592       N  0.71392263  0.62722503  0.79619070    -0.56600
N2593       N  0.73786862  0.69024833  0.79282392    -0.36000
N2594       N  0.73652706  0.70277247  0.68653814    -0.56600
C2595       C  0.68835759  0.60031863  0.71578064     0.27600
C2596       C  0.70105141  0.63303113  0.66688379     0.27600
C2597       C  0.72806352  0.68433303  0.83303612     0.27600
C2598       C  0.72778251  0.71863321  0.78653009     0.27600
C2599       C  0.69545588  0.60012626  0.79300101     0.36200
C2600       C  0.71853916  0.63226524  0.83693734     0.36200
C2601       C  0.70257314  0.68386426  0.67160066     0.36200
C2602       C  0.70970748  0.71743919  0.71567378     0.36200
C2603       C  0.67052718  0.58952056  0.67885654    -0.21300
C2604       C  0.67956859  0.60999260  0.64797926    -0.21300
C2605       C  0.70841954  0.70868604  0.85180152    -0.21300
C2606       C  0.70856394  0.73052076  0.82237411    -0.21300
C2607       C  0.68450422  0.58898637  0.83249670    -0.22300
C2608       C  0.69883103  0.60924550  0.85997880    -0.22300
C2609       C  0.65556149  0.68624299  0.69177041    -0.22300
C2610       C  0.66000651  0.70744629  0.71948042    -0.22300
C2611       C  0.68987872  0.58529117  0.75502624    -0.17700
C2612       C  0.71531079  0.65961559  0.64812171    -0.17700
C2613       C  0.73156961  0.73271999  0.74765503    -0.17700
C2614       C  0.73870391  0.65783663  0.85340636    -0.17700
H2615       H  0.65083499  0.56957071  0.67409404     0.15200
H2616       H  0.66965723  0.60855484  0.61581234     0.15200
H2617       H  0.69451456  0.71041578  0.88329504     0.15200
H2618       H  0.69387881  0.75214989  0.82649178     0.15200
H2619       H  0.66583524  0.56906873  0.84146201     0.13500
H2620       H  0.69357894  0.60749944  0.89315955     0.13500
H2621       H  0.62266704  0.67251783  0.68858918     0.13500
H2622       H  0.63140197  0.71346027  0.74232601     0.13500
H2623       H  0.72325371  0.64104702  0.72759470     0.26800
H2624       H  0.75424449  0.67637498  0.77145058     0.26800
loop_ 
_geom_bond_atom_site_label_1 
_geom_bond_atom_site_label_2 
_geom_bond_distance 
_geom_bond_site_symmetry_2 
_ccdc_geom_bond_type 
O1           Ni9   1.914       .  S
O1          C995   1.279       .  A
O2        Ni1321   1.912       .  S
O2          C996   1.279       .  A
O3         Ni665   1.932       .  S
O3           C13   1.283       .  A
O4        Ni1321   1.923       .  S
O4          C342   1.285       .  A
O5        Ni1978   1.927       .  S
O5         C1326   1.281       .  A
O6          Ni10   1.928       .  S
O6         C1653   1.283       .  A
O7          Ni10   1.904       .  S
O7           C12   1.278   1_554  A
O8        Ni1322   1.916       .  S
O8           C11   1.281   1_565  A
Ni9        O1314   1.909   1_455  S
Ni9         O659   1.917       .  S
Ni9        O1316   1.923       .  S
Ni9       Ni2306   2.379       .  S
Ni10       O1973   1.936   1_545  S
Ni10       O1320   1.911       .  S
Ni10      Ni2305   2.378   1_554  S
C11         O985   1.277   1_554  A
C11          C39   1.458       .  S
C12         O986   1.280       .  A
C12          C40   1.460       .  S
C13        O1646   1.281       .  A
C13         C214   1.513       .  S
C14         O332   1.285   1_554  A
C14        O1317   1.283       .  A
C14          C78   1.522       .  S
O15         Ni23   1.907   1_455  S
O15         C681   1.278       .  A
O16       Ni1335   1.907       .  S
O16         C682   1.278       .  A
O17        Ni679   1.914       .  S
O17        C1339   1.280       .  A
O18       Ni1335   1.921   1_545  S
O18          C28   1.282       .  A
O19       Ni1992   1.929       .  S
O19        C1340   1.281       .  A
O20         Ni24   1.922       .  S
O20          C27   1.283       .  A
O21         Ni24   1.917       .  S
O21          C26   1.282       .  A
O22       Ni1336   1.916   1_455  S
O22          C25   1.282       .  A
Ni23       O1328   1.911       .  S
Ni23        O673   1.920       .  S
Ni23       O1330   1.921   1_565  S
Ni23      Ni1992   2.380   1_565  S
Ni24       O1987   1.936       .  S
Ni24       O1334   1.920       .  S
Ni24      Ni1991   2.378       .  S
C25         O671   1.277       .  A
C25          C53   1.461       .  S
C26         O672   1.278       .  A
C26          C54   1.465       .  S
C27        O1329   1.279       .  A
C27         C111   1.515       .  S
C28        O1331   1.280       .  A
C28        C1559   1.515       .  S
O29        Ni693   1.906       .  S
O29         C695   1.278       .  A
O30         Ni37   1.907       .  S
O30          C40   1.279   1_554  A
O31         Ni37   1.943       .  S
O31          C41   1.284       .  A
O32        Ni693   1.928       .  S
O32          C42   1.286   1_554  A
O33         Ni38   1.904       .  S
O33         C370   1.276       .  A
O34        Ni694   1.913       .  S
O34         C369   1.283       .  A
O35         Ni38   1.914       .  S
O35        C1024   1.280       .  A
O36        Ni694   1.918       .  S
O36         C367   1.281       .  A
Ni37        O685   1.906       .  S
Ni37        O688   1.934   1_545  S
Ni37      Ni1022   2.378   1_554  S
Ni38        O690   1.907       .  S
Ni38        O692   1.916       .  S
Ni38      Ni1021   2.379       .  S
C39         O685   1.277       .  A
C39         O364   1.281   1_554  A
C40        O1019   1.280       .  A
C41         O362   1.282   1_554  A
C41         C281   1.518       .  S
C42         O361   1.275       .  A
C42         C145   1.514       .  S
O43        Ni707   1.922       .  S
O43          C53   1.283       .  A
O44         Ni51   1.913       .  S
O44         C710   1.281       .  A
O45         Ni51   1.928   1_545  S
O45          C55   1.282       .  A
O46        Ni707   1.927       .  S
O46          C56   1.281       .  A
O47         Ni52   1.916       .  S
O47          C56   1.283       .  A
O48        Ni708   1.914   1_545  S
O48          C55   1.281       .  A
O49         Ni52   1.902       .  S
O49          C54   1.276       .  A
O50        Ni708   1.906       .  S
O50         C709   1.278       .  A
Ni51        O699   1.910       .  S
Ni51        O702   1.931       .  S
Ni51       Ni708   2.379       .  S
Ni52        O704   1.911       .  S
Ni52        O706   1.903       .  S
Ni52       Ni707   2.380       .  S
C53         O706   1.276       .  A
C54         O700   1.284       .  A
C55         C315   1.514       .  S
C56         C179   1.512       .  S
N57          C62   1.352       .  A
N57          C61   1.350       .  A
N57          H89   1.040       .  S
N58          C65   1.343       .  A
N58          C66   1.348       .  A
N59          C64   1.352       .  A
N59          C63   1.353       .  A
N59          H90   1.044       .  S
N60          C67   1.359       .  A
N60          C68   1.356       .  A
C61          C69   1.381       .  A
C61          C77   1.403       .  A
C62          C70   1.394       .  A
C62         C406   1.422       .  A
C63          C71   1.376       .  A
C63          C80   1.405       .  A
C64          C79   1.426       .  A
C64          C72   1.394       .  A
C65          C77   1.406       .  A
C65          C73   1.387       .  A
C66          C74   1.385       .  A
C66         C408   1.404       .  A
C67          C75   1.389       .  A
C67          C78   1.434       .  A
C68          C76   1.387       .  A
C68          C79   1.432       .  A
C69          C70   1.375       .  A
C69          H81   1.083       .  S
C70          H82   1.082       .  S
C71          C72   1.374       .  A
C71          H83   1.082       .  S
C72          H84   1.073       .  S
C73          C74   1.377       .  A
C73          H85   1.082       .  S
C74          H86   1.082       .  S
C75          C76   1.379       .  A
C75          H87   1.080       .  S
C76          H88   1.082       .  S
C77         C114   1.526       .  S
C78         C390   1.429   1_554  A
C79         C112   1.518       .  S
C80        C1856   1.491       .  S
C80         C394   1.401   1_554  A
N91          C96   1.347       .  A
N91          C95   1.352       .  A
N91         H123   1.039       .  S
N92          C99   1.359       .  A
N92         C100   1.353       .  A
N93          C98   1.359       .  A
N93          C97   1.351       .  A
N93         H124   1.044       .  S
N94         C101   1.355       .  A
N94         C102   1.360       .  A
C95         C103   1.398       .  A
C95         C111   1.430       .  A
C96         C112   1.404       .  A
C96         C104   1.376       .  A
C97         C105   1.383       .  A
C97         C114   1.414       .  A
C98         C113   1.419       .  A
C98         C106   1.389       .  A
C99         C111   1.436       .  A
C99         C107   1.391       .  A
C100        C114   1.424       .  A
C100        C108   1.385       .  A
C101        C109   1.384       .  A
C101        C112   1.408       .  A
C102        C110   1.385       .  A
C102        C113   1.404       .  A
C103        C104   1.377       .  A
C103        H115   1.080       .  S
C104        H116   1.081       .  S
C105        C106   1.366       .  A
C105        H117   1.080       .  S
C106        H118   1.075       .  S
C107        C108   1.371       .  A
C107        H119   1.078       .  S
C108        H120   1.081       .  S
C109        C110   1.363       .  A
C109        H121   1.083       .  S
C110        H122   1.081       .  S
C113       C1561   1.511       .  S
N125        C130   1.353       .  A
N125        C129   1.352       .  A
N125        H157   1.036       .  S
N126        C133   1.356       .  A
N126        C134   1.353       .  A
N127        C132   1.356       .  A
N127        C131   1.350       .  A
N127        H158   1.043       .  S
N128        C135   1.358       .  A
N128        C136   1.359       .  A
C129        C137   1.399       .  A
C129        C473   1.436       .  A
C130        C146   1.419       .  A
C130        C138   1.379       .  A
C131        C139   1.389       .  A
C131        C148   1.417       .  A
C132        C147   1.416       .  A
C132        C140   1.384       .  A
C133        C145   1.431   1_554  A
C133        C141   1.391       .  A
C134        C148   1.416       .  A
C134        C142   1.381       .  A
C135        C143   1.386       .  A
C135        C146   1.406       .  A
C136        C144   1.384       .  A
C136        C475   1.403       .  A
C137        C138   1.381       .  A
C137        H149   1.079       .  S
C138        H150   1.082       .  S
C139        C140   1.372       .  A
C139        H151   1.081       .  S
C140        H152   1.081       .  S
C141        C142   1.367       .  A
C141        H153   1.081       .  S
C142        H154   1.081       .  S
C143        C144   1.358       .  A
C143        H155   1.083       .  S
C144        H156   1.082       .  S
C145        C457   1.442       .  A
C146        C182   1.523       .  S
C147        C283   1.524   1_554  S
C147        C464   1.394   1_554  A
C148        C180   1.519       .  S
N159        C164   1.351       .  A
N159        C163   1.354       .  A
N159        H191   1.040       .  S
N160        C167   1.354       .  A
N160        C168   1.353       .  A
N161        C166   1.354       .  A
N161        C165   1.356       .  A
N161        H192   1.043       .  S
N162        C169   1.341       .  A
N162        C170   1.349       .  A
C163        C171   1.395       .  A
C163        C179   1.428       .  A
C164        C180   1.405       .  A
C164        C172   1.379       .  A
C165        C173   1.394       .  A
C165        C182   1.433       .  A
C166        C181   1.421       .  A
C166        C174   1.382       .  A
C167        C179   1.430       .  A
C167        C175   1.390       .  A
C168        C182   1.426       .  A
C168        C176   1.385       .  A
C169        C177   1.381       .  A
C169        C180   1.395       .  A
C170        C178   1.390       .  A
C170        C181   1.409       .  A
C171        C172   1.374       .  A
C171        H183   1.081       .  S
C172        H184   1.083       .  S
C173        C174   1.383       .  A
C173        H185   1.076       .  S
C174        H186   1.082       .  S
C175        C176   1.377       .  A
C175        H187   1.080       .  S
C176        H188   1.082       .  S
C177        C178   1.372       .  A
C177        H189   1.082       .  S
C178        H190   1.077       .  S
C181        C317   1.512       .  S
N193        C198   1.353       .  A
N193        C197   1.350       .  A
N193        H225   1.039       .  S
N194        C201   1.357       .  A
N194        C202   1.360       .  A
N195        C200   1.357       .  A
N195        C199   1.357       .  A
N195        H226   1.041   1_655  S
N196        C203   1.360       .  A
N196        C204   1.357       .  A
C197        C205   1.378       .  A
C197        C213   1.410       .  A
C198        C206   1.399       .  A
C198        C542   1.433       .  A
C199        C207   1.375       .  A
C199        C216   1.414       .  A
C200        C215   1.434       .  A
C200        C208   1.392       .  A
C201        C213   1.410       .  A
C201        C209   1.384       .  A
C202        C210   1.380       .  A
C202        C544   1.404       .  A
C203        C211   1.387       .  A
C203        C214   1.436       .  A
C204        C212   1.387       .  A
C204        C215   1.434   1_455  A
C205        C206   1.375       .  A
C205        H217   1.082       .  S
C206        H218   1.078       .  S
C207        C208   1.376       .  A
C207        H219   1.080       .  S
C208        H220   1.072       .  S
C209        C210   1.365       .  A
C209        H221   1.082       .  S
C210        H222   1.082       .  S
C211        C212   1.380       .  A
C211        H223   1.081       .  S
C212        H224   1.082       .  S
C213        C250   1.525       .  S
C214        C526   1.435       .  A
C215        C248   1.528       .  S
C216       C1720   1.494       .  S
C216        C530   1.389   1_655  A
N227        C232   1.352       .  A
N227        C231   1.350       .  A
N227        H259   1.038       .  S
N228        C235   1.361       .  A
N228        C236   1.360       .  A
N229        C234   1.352       .  A
N229        C233   1.351   1_655  A
N229        H260   1.043       .  S
N230        C237   1.350       .  A
N230        C238   1.356       .  A
C231        C239   1.402       .  A
C231        C247   1.435       .  A
C232        C248   1.406       .  A
C232        C240   1.374       .  A
C233        C241   1.395       .  A
C233        C250   1.425       .  A
C234        C249   1.406       .  A
C234        C242   1.379   1_655  A
C235        C247   1.439       .  A
C235        C243   1.389       .  A
C236        C250   1.435   1_655  A
C236        C244   1.385       .  A
C237        C245   1.391       .  A
C237        C248   1.406       .  A
C238        C246   1.380       .  A
C238        C249   1.395       .  A
C239        C240   1.377       .  A
C239        H251   1.078       .  S
C240        H252   1.082       .  S
C241        C242   1.378       .  A
C241        H253   1.076       .  S
C242        H254   1.082       .  S
C243        C244   1.379       .  A
C243        H255   1.081       .  S
C244        H256   1.082       .  S
C245        C246   1.370       .  A
C245        H257   1.083       .  S
C246        H258   1.083       .  S
C247       C1340   1.517       .  S
C249       C1425   1.508       .  S
N261        C266   1.355       .  A
N261        C265   1.362       .  A
N261        H293   1.037       .  S
N262        C269   1.347       .  A
N262        C270   1.347       .  A
N263        C268   1.357       .  A
N263        C267   1.343       .  A
N263        H294   1.045       .  S
N264        C271   1.353       .  A
N264        C272   1.352       .  A
C265        C273   1.390       .  A
C265        C281   1.436       .  A
C266        C282   1.435       .  A
C266        C274   1.389       .  A
C267        C275   1.380       .  A
C267        C284   1.404       .  A
C268        C276   1.394       .  A
C268        C611   1.424       .  A
C269        C277   1.394       .  A
C269        C609   1.422       .  A
C270        C284   1.399       .  A
C270        C278   1.380       .  A
C271        C279   1.393       .  A
C271        C282   1.426       .  A
C272        C280   1.378       .  A
C272        C283   1.409   1_554  A
C273        C274   1.384       .  A
C273        H285   1.081       .  S
C274        H286   1.082       .  S
C275        C276   1.376       .  A
C275        H287   1.082       .  S
C276        H288   1.075       .  S
C277        C278   1.369       .  A
C277        H289   1.081       .  S
C278        H290   1.083       .  S
C279        C280   1.370       .  A
C279        H291   1.075       .  S
C280        H292   1.083       .  S
C281        C597   1.427   1_554  A
C282        C316   1.519       .  S
C283        C596   1.426       .  A
C284        C318   1.519       .  S
N295        C300   1.349       .  A
N295        C299   1.349       .  A
N295        H327   1.040       .  S
N296        C303   1.359       .  A
N296        C304   1.354       .  A
N297        C302   1.351       .  A
N297        C301   1.343       .  A
N297        H328   1.044       .  S
N298        C305   1.358       .  A
N298        C306   1.361       .  A
C299        C307   1.398       .  A
C299        C315   1.428       .  A
C300        C316   1.406       .  A
C300        C308   1.379       .  A
C301        C309   1.391       .  A
C301        C318   1.408       .  A
C302        C317   1.405       .  A
C302        C310   1.384       .  A
C303        C315   1.435       .  A
C303        C311   1.391       .  A
C304        C318   1.424       .  A
C304        C312   1.383       .  A
C305        C313   1.385       .  A
C305        C316   1.409       .  A
C306        C314   1.387       .  A
C306        C317   1.407       .  A
C307        C308   1.378       .  A
C307        H319   1.081       .  S
C308        H320   1.082       .  S
C309        C310   1.374       .  A
C309        H321   1.082       .  S
C310        H322   1.082       .  S
C311        C312   1.372       .  A
C311        H323   1.079       .  S
C312        H324   1.082       .  S
C313        C314   1.357       .  A
C313        H325   1.083       .  S
C314        H326   1.083       .  S
O329       Ni337   1.910       .  S
O329        C667   1.278   1_556  A
O330      Ni1649   1.911       .  S
O330        C668   1.279   1_556  A
O331       Ni993   1.902       .  S
O331        C341   1.278   1_556  A
O332      Ni1649   1.927       .  S
O333      Ni2306   1.931       .  S
O333       C1654   1.282       .  A
O334       Ni338   1.925   1_545  S
O334       C1325   1.283       .  A
O335       Ni338   1.910       .  S
O335        C340   1.280   1_565  A
O336      Ni1650   1.913       .  S
O336        C339   1.280   1_565  A
Ni337      O1642   1.905   1_455  S
Ni337       O987   1.910       .  S
Ni337      O1644   1.915       .  S
Ni337     Ni1978   2.379   1_556  S
Ni338      O2301   1.932       .  S
Ni338      O1648   1.913       .  S
Ni338     Ni1977   2.379   1_565  S
C339        O657   1.279       .  A
C339        C367   1.464       .  S
C340        O658   1.278       .  A
C340        C368   1.457       .  S
C341       O1318   1.281       .  A
C341        C542   1.509       .  S
C342       O1645   1.282       .  A
C342        C406   1.515       .  S
O343       Ni351   1.909   1_455  S
O343       C1009   1.278       .  A
O344      Ni1663   1.904       .  S
O344       C1010   1.277       .  A
O345      Ni1007   1.938       .  S
O345       C1667   1.283       .  A
O346      Ni1663   1.920   1_545  S
O346        C356   1.280       .  A
O347      Ni2320   1.926       .  S
O347       C1668   1.280       .  A
O348       Ni352   1.920       .  S
O348        C355   1.282       .  A
O349       Ni352   1.920       .  S
O349        C354   1.282       .  A
O350      Ni1664   1.905   1_455  S
O350        C353   1.279       .  A
Ni351      O1656   1.910       .  S
Ni351      O1001   1.939       .  S
Ni351      O1658   1.937   1_565  S
Ni351     Ni2320   2.378   1_565  S
Ni352      O2315   1.931       .  S
Ni352      O1662   1.923       .  S
Ni352     Ni2319   2.378       .  S
C353        O999   1.279       .  A
C353        C381   1.457       .  S
C354       O1000   1.277       .  A
C354        C382   1.460       .  S
C355       O1657   1.280       .  A
C355        C439   1.515       .  S
C356       O1659   1.283       .  A
C356       C1887   1.519       .  S
O357      Ni1021   1.915       .  S
O357       C1023   1.280       .  A
O358       Ni365   1.907       .  S
O358        C368   1.278       .  A
O359       Ni365   1.941       .  S
O359        C369   1.284       .  A
O360      Ni1021   1.925       .  S
O360        C370   1.285       .  A
O361       Ni366   1.906       .  S
O362      Ni1022   1.910       .  S
O363       Ni366   1.917       .  S
O363        C696   1.281   1_556  A
O364      Ni1022   1.913       .  S
Ni365      O1013   1.910   1_545  S
Ni365      O1016   1.928   1_545  S
Ni365      Ni694   2.379       .  S
Ni366      O1018   1.910       .  S
Ni366      O1020   1.917       .  S
Ni366      Ni693   2.378   1_556  S
C367       O1013   1.279   1_545  A
C368        O691   1.280       .  A
C369        C609   1.518       .  S
C370        C473   1.509       .  S
O371      Ni1035   1.913       .  S
O371        C381   1.280       .  A
O372       Ni379   1.913       .  S
O372       C1038   1.280       .  A
O373       Ni379   1.924   1_545  S
O373        C383   1.281       .  A
O374      Ni1035   1.928       .  S
O374        C384   1.282       .  A
O375       Ni380   1.914       .  S
O375        C384   1.281       .  A
O376      Ni1036   1.909   1_545  S
O376        C383   1.280       .  A
O377       Ni380   1.907       .  S
O377        C382   1.277       .  A
O378      Ni1036   1.910       .  S
O378       C1037   1.279       .  A
Ni379      O1027   1.911       .  S
Ni379      O1030   1.928       .  S
Ni379     Ni1036   2.379       .  S
Ni380      O1032   1.907       .  S
Ni380      O1034   1.905       .  S
Ni380     Ni1035   2.380       .  S
C381       O1034   1.278       .  A
C382       O1028   1.281       .  A
C383        C643   1.514       .  S
C384        C507   1.513       .  S
N385        C390   1.356       .  A
N385        C389   1.352       .  A
N385        H417   1.040       .  S
N386        C393   1.341       .  A
N386        C394   1.347       .  A
N387        C392   1.353       .  A
N387        C391   1.353       .  A
N387        H418   1.044       .  S
N388        C395   1.359       .  A
N388        C396   1.356       .  A
C389        C397   1.379       .  A
C389        C405   1.407       .  A
C390        C398   1.394       .  A
C391        C399   1.376       .  A
C391        C408   1.406       .  A
C392        C407   1.427       .  A
C392        C400   1.394       .  A
C393        C405   1.404       .  A
C393        C401   1.387       .  A
C394        C402   1.385       .  A
C395        C403   1.387       .  A
C395        C406   1.431       .  A
C396        C404   1.388       .  A
C396        C407   1.434       .  A
C397        C398   1.375       .  A
C397        H409   1.083       .  S
C398        H410   1.081       .  S
C399        C400   1.375       .  A
C399        H411   1.082       .  S
C400        H412   1.073       .  S
C401        C402   1.376       .  A
C401        H413   1.082       .  S
C402        H414   1.082       .  S
C403        C404   1.379       .  A
C403        H415   1.080       .  S
C404        H416   1.082       .  S
C405        C442   1.526       .  S
C407        C440   1.522       .  S
C408       C1528   1.494       .  S
N419        C424   1.348       .  A
N419        C423   1.353       .  A
N419        H451   1.037       .  S
N420        C427   1.357       .  A
N420        C428   1.352       .  A
N421        C426   1.358       .  A
N421        C425   1.352       .  A
N421        H452   1.044       .  S
N422        C429   1.356       .  A
N422        C430   1.361       .  A
C423        C431   1.398       .  A
C423        C439   1.433       .  A
C424        C440   1.407       .  A
C424        C432   1.377       .  A
C425        C433   1.384       .  A
C425        C442   1.418       .  A
C426        C441   1.420       .  A
C426        C434   1.388       .  A
C427        C439   1.435       .  A
C427        C435   1.391       .  A
C428        C442   1.421       .  A
C428        C436   1.384       .  A
C429        C437   1.385       .  A
C429        C440   1.410       .  A
C430        C438   1.385       .  A
C430        C441   1.406       .  A
C431        C432   1.377       .  A
C431        H443   1.080       .  S
C432        H444   1.081       .  S
C433        C434   1.367       .  A
C433        H445   1.078       .  S
C434        H446   1.076       .  S
C435        C436   1.370       .  A
C435        H447   1.078       .  S
C436        H448   1.082       .  S
C437        C438   1.365       .  A
C437        H449   1.083       .  S
C438        H450   1.082       .  S
C441       C1889   1.514       .  S
N453        C458   1.354       .  A
N453        C457   1.353       .  A
N453        H485   1.038       .  S
N454        C461   1.355       .  A
N454        C462   1.353       .  A
N455        C460   1.354       .  A
N455        C459   1.347       .  A
N455        H486   1.043       .  S
N456        C463   1.354       .  A
N456        C464   1.356       .  A
C457        C465   1.401       .  A
C458        C474   1.423       .  A
C458        C466   1.377       .  A
C459        C467   1.390       .  A
C459        C476   1.418       .  A
C460        C475   1.415       .  A
C460        C468   1.384       .  A
C461        C473   1.428       .  A
C461        C469   1.390       .  A
C462        C476   1.417       .  A
C462        C470   1.382       .  A
C463        C471   1.387       .  A
C463        C474   1.403       .  A
C464        C472   1.383       .  A
C465        C466   1.382       .  A
C465        H477   1.077       .  S
C466        H478   1.082       .  S
C467        C468   1.376       .  A
C467        H479   1.082       .  S
C468        H480   1.082       .  S
C469        C470   1.367       .  A
C469        H481   1.081       .  S
C470        H482   1.081       .  S
C471        C472   1.357       .  A
C471        H483   1.083       .  S
C472        H484   1.083       .  S
C474        C510   1.527       .  S
C475        C611   1.525       .  S
C476        C508   1.520       .  S
N487        C492   1.350       .  A
N487        C491   1.356       .  A
N487        H519   1.040       .  S
N488        C495   1.353       .  A
N488        C496   1.350       .  A
N489        C494   1.357       .  A
N489        C493   1.359       .  A
N489        H520   1.044       .  S
N490        C497   1.342       .  A
N490        C498   1.351       .  A
C491        C499   1.396       .  A
C491        C507   1.431       .  A
C492        C508   1.407       .  A
C492        C500   1.380       .  A
C493        C501   1.393       .  A
C493        C510   1.438       .  A
C494        C509   1.427       .  A
C494        C502   1.382       .  A
C495        C507   1.429       .  A
C495        C503   1.391       .  A
C496        C510   1.421       .  A
C496        C504   1.385       .  A
C497        C505   1.382       .  A
C497        C508   1.400       .  A
C498        C506   1.391       .  A
C498        C509   1.413       .  A
C499        C500   1.375       .  A
C499        H511   1.080       .  S
C500        H512   1.083       .  S
C501        C502   1.384       .  A
C501        H513   1.076       .  S
C502        H514   1.081       .  S
C503        C504   1.377       .  A
C503        H515   1.080       .  S
C504        H516   1.082       .  S
C505        C506   1.374       .  A
C505        H517   1.083       .  S
C506        H518   1.078       .  S
C509        C645   1.521       .  S
N521        C526   1.348       .  A
N521        C525   1.349       .  A
N521        H553   1.036       .  S
N522        C529   1.346   1_655  A
N522        C530   1.354   1_655  A
N523        C528   1.350       .  A
N523        C527   1.353       .  A
N523        H554   1.044   1_455  S
N524        C531   1.355       .  A
N524        C532   1.354       .  A
C525        C533   1.375       .  A
C525        C541   1.405       .  A
C526        C534   1.403       .  A
C527        C535   1.394       .  A
C527        C544   1.416   1_556  A
C528        C543   1.405   1_455  A
C528        C536   1.380       .  A
C529        C541   1.403       .  A
C529        C537   1.386       .  A
C530        C538   1.381       .  A
C531        C539   1.392       .  A
C531        C542   1.433   1_556  A
C532        C540   1.381       .  A
C532        C543   1.413   1_455  A
C533        C534   1.378       .  A
C533        H545   1.082       .  S
C534        H546   1.078       .  S
C535        C536   1.364       .  A
C535        H547   1.073       .  S
C536        H548   1.083       .  S
C537        C538   1.368       .  A
C537        H549   1.082       .  S
C538        H550   1.083       .  S
C539        C540   1.368       .  A
C539        H551   1.081       .  S
C540        H552   1.082       .  S
C541        C578   1.517       .  S
C543        C576   1.528       .  S
C544       C1392   1.502       .  S
N555        C560   1.353       .  A
N555        C559   1.357       .  A
N555        H587   1.038       .  S
N556        C563   1.359       .  A
N556        C564   1.356       .  A
N557        C562   1.354   1_655  A
N557        C561   1.353   1_655  A
N557        H588   1.043       .  S
N558        C565   1.345       .  A
N558        C566   1.350       .  A
C559        C567   1.395       .  A
C559        C575   1.432       .  A
C560        C576   1.412       .  A
C560        C568   1.379       .  A
C561        C569   1.395       .  A
C561        C578   1.427       .  A
C562        C577   1.408   1_455  A
C562        C570   1.378       .  A
C563        C575   1.437       .  A
C563        C571   1.390       .  A
C564        C578   1.430   1_655  A
C564        C572   1.385       .  A
C565        C573   1.389       .  A
C565        C576   1.415       .  A
C566        C574   1.384       .  A
C566        C577   1.406       .  A
C567        C568   1.373       .  A
C567        H579   1.079       .  S
C568        H580   1.082       .  S
C569        C570   1.373       .  A
C569        H581   1.076       .  S
C570        H582   1.082       .  S
C571        C572   1.379       .  A
C571        H583   1.080       .  S
C572        H584   1.082       .  S
C573        C574   1.377       .  A
C573        H585   1.082       .  S
C574        H586   1.082       .  S
C575       C1668   1.523       .  S
C577       C1753   1.493       .  S
N589        C594   1.357       .  A
N589        C593   1.365       .  A
N589        H621   1.040       .  S
N590        C597   1.348       .  A
N590        C598   1.350       .  A
N591        C596   1.358       .  A
N591        C595   1.346       .  A
N591        H622   1.043       .  S
N592        C599   1.353       .  A
N592        C600   1.354       .  A
C593        C601   1.387       .  A
C593        C609   1.434       .  A
C594        C610   1.435       .  A
C594        C602   1.388       .  A
C595        C603   1.380       .  A
C595        C612   1.408       .  A
C596        C604   1.393       .  A
C597        C605   1.394       .  A
C598        C612   1.404       .  A
C598        C606   1.380       .  A
C599        C607   1.394       .  A
C599        C610   1.429       .  A
C600        C608   1.381       .  A
C600        C611   1.416       .  A
C601        C602   1.383       .  A
C601        H613   1.081       .  S
C602        H614   1.082       .  S
C603        C604   1.375       .  A
C603        H615   1.081       .  S
C604        H616   1.075       .  S
C605        C606   1.371       .  A
C605        H617   1.081       .  S
C606        H618   1.083       .  S
C607        C608   1.377       .  A
C607        H619   1.076       .  S
C608        H620   1.083       .  S
C610        C644   1.525       .  S
C612        C646   1.526       .  S
N623        C628   1.353       .  A
N623        C627   1.352       .  A
N623        H655   1.041       .  S
N624        C631   1.358       .  A
N624        C632   1.357       .  A
N625        C630   1.351       .  A
N625        C629   1.345       .  A
N625        H656   1.045       .  S
N626        C633   1.360       .  A
N626        C634   1.362       .  A
C627        C635   1.399       .  A
C627        C643   1.434       .  A
C628        C644   1.411       .  A
C628        C636   1.378       .  A
C629        C637   1.390       .  A
C629        C646   1.409       .  A
C630        C645   1.406       .  A
C630        C638   1.384       .  A
C631        C643   1.437       .  A
C631        C639   1.394       .  A
C632        C646   1.423       .  A
C632        C640   1.381       .  A
C633        C641   1.383       .  A
C633        C644   1.410       .  A
C634        C642   1.386       .  A
C634        C645   1.410       .  A
C635        C636   1.377       .  A
C635        H647   1.080       .  S
C636        H648   1.082       .  S
C637        C638   1.374       .  A
C637        H649   1.082       .  S
C638        H650   1.082       .  S
C639        C640   1.370       .  A
C639        H651   1.077       .  S
C640        H652   1.082       .  S
C641        C642   1.359       .  A
C641        H653   1.083       .  S
C642        H654   1.083       .  S
O657       Ni665   1.915       .  S
O658      Ni1977   1.907       .  S
O659        C669   1.280       .  A
O660      Ni1977   1.921   1_565  S
O660        C998   1.281       .  A
O661      Ni1322   1.923       .  S
O661       C1982   1.283       .  A
O662       Ni666   1.923       .  S
O662       C2309   1.283   1_554  A
O663       Ni666   1.911       .  S
O663        C668   1.280       .  A
O664      Ni1978   1.914       .  S
O664        C667   1.281       .  A
Ni665      O1970   1.909   1_455  S
Ni665      O1972   1.927   1_545  S
Ni665     Ni1650   2.379   1_545  S
Ni666      O1317   1.937       .  S
Ni666      O1976   1.917       .  S
Ni666     Ni1649   2.379   1_554  S
C667        C695   1.461       .  S
C668        C696   1.460       .  S
C669       O2302   1.282       .  A
C669        C870   1.511       .  S
C670        O988   1.282       .  A
C670       O1973   1.284   1_556  A
C670        C734   1.526       .  S
O671       Ni679   1.908   1_455  S
O672      Ni1991   1.914       .  S
O673       C1995   1.280       .  A
O674      Ni1991   1.925       .  S
O674        C684   1.285       .  A
O675      Ni1336   1.923       .  S
O675       C1996   1.281       .  A
O676       Ni680   1.916   1_565  S
O676        C683   1.280       .  A
O677       Ni680   1.916       .  S
O677        C682   1.281   1_545  A
O678      Ni1992   1.909   1_455  S
O678        C681   1.279   1_545  A
Ni679      O1984   1.903       .  S
Ni679      O1986   1.918       .  S
Ni679     Ni1336   2.381       .  S
Ni680      O1331   1.922       .  S
Ni680      O1990   1.915       .  S
Ni680     Ni1335   2.378   1_545  S
C681        C709   1.456       .  S
C682        C710   1.459       .  S
C683       O1985   1.283       .  A
C683        C767   1.515       .  S
C684       O1987   1.283       .  A
C684       C2215   1.520       .  S
O686       Ni693   1.906       .  S
O686        C696   1.278       .  A
O687       Ni693   1.941       .  S
O687        C697   1.284       .  A
O688        C698   1.288   1_554  A
O689       Ni694   1.914   1_565  S
O689       C1026   1.276       .  A
O690       C1025   1.280       .  A
O691       Ni694   1.912       .  S
O692       C1023   1.280       .  A
C695       O1020   1.281   1_554  A
C697       O1018   1.281   1_554  A
C697        C937   1.517       .  S
C698       O1017   1.277       .  A
C698        C801   1.521       .  S
O699        C709   1.280       .  A
O700       Ni707   1.927       .  S
O701       Ni707   1.916       .  S
O701        C711   1.280       .  A
O702        C712   1.283       .  A
O703       Ni708   1.915       .  S
O703        C712   1.281       .  A
O704        C711   1.281       .  A
O705       Ni708   1.907   1_545  S
O705        C710   1.278   1_545  A
C711        C971   1.508       .  S
C712        C835   1.515       .  S
N713        C718   1.356       .  A
N713        C717   1.357       .  A
N713        H745   1.038       .  S
N714        C721   1.352       .  A
N714        C722   1.355       .  A
N715        C720   1.354       .  A
N715        C719   1.357       .  A
N715        H746   1.044       .  S
N716        C723   1.363       .  A
N716        C724   1.361       .  A
C717        C725   1.376       .  A
C717        C733   1.417       .  A
C718       C1062   1.440       .  A
C718        C726   1.401       .  A
C719        C727   1.378       .  A
C719        C736   1.411   1_554  A
C720        C735   1.432       .  A
C720        C728   1.392       .  A
C721        C733   1.406       .  A
C721        C729   1.389       .  A
C722       C1064   1.397       .  A
C722        C730   1.380       .  A
C723        C731   1.389       .  A
C723        C734   1.438   1_554  A
C724        C732   1.386       .  A
C724        C735   1.433       .  A
C725        C726   1.375       .  A
C725        H737   1.081       .  S
C726        H738   1.076       .  S
C727        C728   1.381       .  A
C727        H739   1.082       .  S
C728        H740   1.071       .  S
C729        C730   1.374       .  A
C729        H741   1.083       .  S
C730        H742   1.083       .  S
C731        C732   1.378       .  A
C731        H743   1.081       .  S
C732        H744   1.082       .  S
C733        C770   1.530       .  S
C734       C1046   1.442       .  A
C735        C768   1.534       .  S
C736       C2512   1.512       .  S
C736       C1050   1.393       .  A
N747        C752   1.358       .  A
N747        C751   1.356       .  A
N747        H779   1.038       .  S
N748        C755   1.358       .  A
N748        C756   1.362       .  A
N749        C754   1.350       .  A
N749        C753   1.354       .  A
N749        H780   1.042       .  S
N750        C757   1.351       .  A
N750        C758   1.353       .  A
C751        C759   1.400       .  A
C751        C767   1.440       .  A
C752        C768   1.416       .  A
C752        C760   1.376       .  A
C753        C761   1.394       .  A
C753        C770   1.430       .  A
C754        C769   1.410       .  A
C754        C762   1.381       .  A
C755        C767   1.432       .  A
C755        C763   1.389       .  A
C756        C770   1.431       .  A
C756        C764   1.385       .  A
C757        C765   1.386       .  A
C757        C768   1.403       .  A
C758        C766   1.378       .  A
C758        C769   1.398       .  A
C759        C760   1.374       .  A
C759        H771   1.077       .  S
C760        H772   1.082       .  S
C761        C762   1.387       .  A
C761        H773   1.079       .  S
C762        H774   1.082       .  S
C763        C764   1.377       .  A
C763        H775   1.082       .  S
C764        H776   1.082       .  S
C765        C766   1.371       .  A
C765        H777   1.080       .  S
C766        H778   1.083       .  S
C769       C2217   1.500       .  S
N781        C786   1.356       .  A
N781        C785   1.356       .  A
N781        H813   1.035       .  S
N782        C789   1.357       .  A
N782        C790   1.354       .  A
N783        C788   1.355       .  A
N783        C787   1.349       .  A
N783        H814   1.041       .  S
N784        C791   1.357       .  A
N784        C792   1.357       .  A
C785        C793   1.399       .  A
C785       C1129   1.442       .  A
C786        C802   1.425       .  A
C786        C794   1.380       .  A
C787        C795   1.392       .  A
C787        C804   1.421       .  A
C788        C803   1.414   1_554  A
C788        C796   1.383       .  A
C789        C801   1.432   1_554  A
C789        C797   1.391       .  A
C790        C804   1.416       .  A
C790        C798   1.381       .  A
C791        C799   1.385       .  A
C791        C802   1.404       .  A
C792        C800   1.385       .  A
C792       C1131   1.402       .  A
C793        C794   1.381       .  A
C793        H805   1.077       .  S
C794        H806   1.082       .  S
C795        C796   1.375       .  A
C795        H807   1.080       .  S
C796        H808   1.082       .  S
C797        C798   1.371       .  A
C797        H809   1.081       .  S
C798        H810   1.082       .  S
C799        C800   1.361       .  A
C799        H811   1.083       .  S
C800        H812   1.081       .  S
C801       C1113   1.446       .  A
C802        C838   1.523       .  S
C803        C939   1.524       .  S
C803       C1120   1.404       .  A
C804        C836   1.526       .  S
N815        C820   1.355       .  A
N815        C819   1.358       .  A
N815        H847   1.038       .  S
N816        C823   1.351       .  A
N816        C824   1.352       .  A
N817        C822   1.350       .  A
N817        C821   1.356       .  A
N817        H848   1.044       .  S
N818        C825   1.343       .  A
N818        C826   1.352       .  A
C819        C827   1.396       .  A
C819        C835   1.438       .  A
C820        C836   1.416       .  A
C820        C828   1.380       .  A
C821        C829   1.396       .  A
C821        C838   1.433       .  A
C822        C837   1.418       .  A
C822        C830   1.383       .  A
C823        C835   1.431       .  A
C823        C831   1.393       .  A
C824        C838   1.421       .  A
C824        C832   1.384       .  A
C825        C833   1.382       .  A
C825        C836   1.403       .  A
C826        C834   1.391       .  A
C826        C837   1.414       .  A
C827        C828   1.375       .  A
C827        H839   1.079       .  S
C828        H840   1.082       .  S
C829        C830   1.385       .  A
C829        H841   1.078       .  S
C830        H842   1.083       .  S
C831        C832   1.380       .  A
C831        H843   1.080       .  S
C832        H844   1.083       .  S
C833        C834   1.374       .  A
C833        H845   1.083       .  S
C834        H846   1.077       .  S
C837        C973   1.512       .  S
N849        C854   1.351       .  A
N849        C853   1.349       .  A
N849        H881   1.037       .  S
N850        C857   1.358       .  A
N850        C858   1.361       .  A
N851        C856   1.353   1_655  A
N851        C855   1.359   1_655  A
N851        H882   1.044       .  S
N852        C859   1.358       .  A
N852        C860   1.352       .  A
C853        C861   1.377       .  A
C853        C869   1.409       .  A
C854       C1198   1.435       .  A
C854        C862   1.401       .  A
C855        C863   1.392       .  A
C855        C872   1.424       .  A
C856        C871   1.414   1_455  A
C856        C864   1.381       .  A
C857        C869   1.410       .  A
C857        C865   1.388       .  A
C858       C1200   1.402   1_554  A
C858        C866   1.380       .  A
C859        C867   1.390       .  A
C859        C870   1.435       .  A
C860        C868   1.384       .  A
C860        C871   1.421   1_455  A
C861        C862   1.378       .  A
C861        H873   1.082       .  S
C862        H874   1.079       .  S
C863        C864   1.364       .  A
C863        H875   1.072       .  S
C864        H876   1.082       .  S
C865        C866   1.359       .  A
C865        H877   1.083       .  S
C866        H878   1.083       .  S
C867        C868   1.372       .  A
C867        H879   1.080       .  S
C868        H880   1.082       .  S
C869        C906   1.522       .  S
C870       C1182   1.432       .  A
C871        C904   1.529       .  S
C872       C2376   1.506       .  S
C872       C1186   1.401       .  A
N883        C888   1.352       .  A
N883        C887   1.351       .  A
N883        H915   1.039       .  S
N884        C891   1.354       .  A
N884        C892   1.354       .  A
N885        C890   1.350   1_655  A
N885        C889   1.355   1_655  A
N885        H916   1.044       .  S
N886        C893   1.344       .  A
N886        C894   1.346       .  A
C887        C895   1.395       .  A
C887        C903   1.425       .  A
C888        C904   1.406       .  A
C888        C896   1.379       .  A
C889        C897   1.394       .  A
C889        C906   1.428       .  A
C890        C905   1.411   1_455  A
C890        C898   1.380       .  A
C891        C903   1.428       .  A
C891        C899   1.388       .  A
C892        C906   1.428   1_655  A
C892        C900   1.387       .  A
C893        C901   1.387       .  A
C893        C904   1.409       .  A
C894        C902   1.387       .  A
C894        C905   1.405       .  A
C895        C896   1.375       .  A
C895        H907   1.081       .  S
C896        H908   1.082       .  S
C897        C898   1.378       .  A
C897        H909   1.077       .  S
C898        H910   1.082       .  S
C899        C900   1.378       .  A
C899        H911   1.081       .  S
C900        H912   1.082       .  S
C901        C902   1.378       .  A
C901        H913   1.082       .  S
C902        H914   1.082       .  S
C903       C1996   1.508       .  S
C905       C2081   1.493       .  S
N917        C922   1.355       .  A
N917        C921   1.363       .  A
N917        H949   1.040       .  S
N918        C925   1.347       .  A
N918        C926   1.348       .  A
N919        C924   1.355       .  A
N919        C923   1.342       .  A
N919        H950   1.044       .  S
N920        C927   1.354       .  A
N920        C928   1.354       .  A
C921        C929   1.389       .  A
C921        C937   1.434       .  A
C922        C938   1.430       .  A
C922        C930   1.387       .  A
C923        C931   1.381       .  A
C923        C940   1.402       .  A
C924       C1267   1.421       .  A
C924        C932   1.394       .  A
C925       C1265   1.424       .  A
C925        C933   1.395       .  A
C926        C940   1.400       .  A
C926        C934   1.379       .  A
C927        C935   1.393       .  A
C927        C938   1.427       .  A
C928        C936   1.381       .  A
C928        C939   1.417   1_554  A
C929        C930   1.383       .  A
C929        H941   1.081       .  S
C930        H942   1.082       .  S
C931        C932   1.377       .  A
C931        H943   1.083       .  S
C932        H944   1.077       .  S
C933        C934   1.369       .  A
C933        H945   1.080       .  S
C934        H946   1.083       .  S
C935        C936   1.377       .  A
C935        H947   1.078       .  S
C936        H948   1.083       .  S
C937       C1253   1.427   1_554  A
C938        C972   1.520       .  S
C939       C1252   1.423       .  A
C940        C974   1.517       .  S
N951        C956   1.352       .  A
N951        C955   1.350       .  A
N951        H983   1.038       .  S
N952        C959   1.355       .  A
N952        C960   1.355       .  A
N953        C958   1.350       .  A
N953        C957   1.344       .  A
N953        H984   1.041       .  S
N954        C961   1.358       .  A
N954        C962   1.359       .  A
C955        C963   1.398       .  A
C955        C971   1.430       .  A
C956        C972   1.411       .  A
C956        C964   1.378       .  A
C957        C965   1.389       .  A
C957        C974   1.407       .  A
C958        C973   1.406       .  A
C958        C966   1.385       .  A
C959        C971   1.433       .  A
C959        C967   1.392       .  A
C960        C974   1.420       .  A
C960        C968   1.383       .  A
C961        C969   1.385       .  A
C961        C972   1.407       .  A
C962        C970   1.385       .  A
C962        C973   1.404       .  A
C963        C964   1.378       .  A
C963        H975   1.080       .  S
C964        H976   1.082       .  S
C965        C966   1.374       .  A
C965        H977   1.082       .  S
C966        H978   1.082       .  S
C967        C968   1.372       .  A
C967        H979   1.080       .  S
C968        H980   1.082       .  S
C969        C970   1.357       .  A
C969        H981   1.083       .  S
C970        H982   1.083       .  S
O985       Ni993   1.904       .  S
O986      Ni2305   1.919       .  S
O987        C997   1.279   1_556  A
O988      Ni2305   1.929   1_565  S
O989      Ni1650   1.924       .  S
O989       C2310   1.280       .  A
O990       Ni994   1.922       .  S
O990       C1981   1.283       .  A
O991       Ni994   1.912       .  S
O991        C996   1.280       .  A
O992      Ni2306   1.916       .  S
O992        C995   1.280       .  A
Ni993      O2298   1.904   1_455  S
Ni993      O2300   1.905   1_545  S
Ni993     Ni1322   2.378   1_546  S
Ni994      O1645   1.932       .  S
Ni994      O2304   1.911       .  S
Ni994     Ni1321   2.380       .  S
C995       C1023   1.465       .  S
C996       C1024   1.461       .  S
C997       O1974   1.280       .  A
C997       C1198   1.510       .  S
C998       O2301   1.283       .  A
C998       C1062   1.520       .  S
O999      Ni1007   1.912   1_455  S
O1000     Ni2319   1.903       .  S
O1001      C2323   1.284       .  A
O1002     Ni2319   1.924       .  S
O1002      C1012   1.285       .  A
O1003     Ni1664   1.929       .  S
O1003      C2324   1.281       .  A
O1004     Ni1008   1.923       .  S
O1004      C1011   1.282       .  A
O1005     Ni1008   1.917       .  S
O1005      C1010   1.281       .  A
O1006     Ni2320   1.911   1_465  S
O1006      C1009   1.280       .  A
Ni1007     O2312   1.914       .  S
Ni1007     O2314   1.938       .  S
Ni1007    Ni1664   2.379       .  S
Ni1008     O1659   1.930   1_565  S
Ni1008     O2318   1.911       .  S
Ni1008    Ni1663   2.378       .  S
C1009      C1037   1.459       .  S
C1010      C1038   1.460       .  S
C1011      O2313   1.282       .  A
C1011      C1095   1.515       .  S
C1012      O2315   1.282       .  A
C1012      C2543   1.517       .  S
O1014     Ni1021   1.909       .  S
O1014      C1024   1.279       .  A
O1015     Ni1021   1.940       .  S
O1015      C1025   1.284       .  A
O1016      C1026   1.286       .  A
O1017     Ni1022   1.919   1_565  S
O1019     Ni1022   1.915       .  S
C1025      C1265   1.513       .  S
C1026      C1129   1.515       .  S
O1027      C1037   1.279       .  A
O1028     Ni1035   1.914       .  S
O1029     Ni1035   1.916       .  S
O1029      C1039   1.280       .  A
O1030      C1040   1.283       .  A
O1031     Ni1036   1.911       .  S
O1031      C1040   1.280       .  A
O1032      C1039   1.279       .  A
O1033     Ni1036   1.909       .  S
O1033      C1038   1.278       .  A
C1039      C1299   1.507       .  S
C1040      C1163   1.508       .  S
N1041      C1046   1.357       .  A
N1041      C1045   1.357       .  A
N1041      H1073   1.039       .  S
N1042      C1049   1.349       .  A
N1042      C1050   1.354       .  A
N1043      C1048   1.355       .  A
N1043      C1047   1.356       .  A
N1043      H1074   1.042       .  S
N1044      C1051   1.360       .  A
N1044      C1052   1.360       .  A
C1045      C1053   1.377       .  A
C1045      C1061   1.419       .  A
C1046      C1054   1.401       .  A
C1047      C1055   1.378       .  A
C1047      C1064   1.412       .  A
C1048      C1063   1.433       .  A
C1048      C1056   1.391       .  A
C1049      C1061   1.404       .  A
C1049      C1057   1.389       .  A
C1050      C1058   1.381       .  A
C1051      C1059   1.389       .  A
C1051      C1062   1.433       .  A
C1052      C1060   1.385       .  A
C1052      C1063   1.430       .  A
C1053      C1054   1.378       .  A
C1053      H1065   1.082       .  S
C1054      H1066   1.075       .  S
C1055      C1056   1.382       .  A
C1055      H1067   1.082       .  S
C1056      H1068   1.070       .  S
C1057      C1058   1.375       .  A
C1057      H1069   1.083       .  S
C1058      H1070   1.083       .  S
C1059      C1060   1.376       .  A
C1059      H1071   1.081       .  S
C1060      H1072   1.082       .  S
C1061      C1098   1.531       .  S
C1063      C1096   1.534       .  S
C1064      C2184   1.512       .  S
N1075      C1080   1.359       .  A
N1075      C1079   1.356       .  A
N1075      H1107   1.038       .  S
N1076      C1083   1.356       .  A
N1076      C1084   1.361       .  A
N1077      C1082   1.349       .  A
N1077      C1081   1.355       .  A
N1077      H1108   1.042       .  S
N1078      C1085   1.351       .  A
N1078      C1086   1.353       .  A
C1079      C1087   1.399       .  A
C1079      C1095   1.439       .  A
C1080      C1096   1.417       .  A
C1080      C1088   1.377       .  A
C1081      C1089   1.395       .  A
C1081      C1098   1.431       .  A
C1082      C1097   1.407       .  A
C1082      C1090   1.381       .  A
C1083      C1095   1.433       .  A
C1083      C1091   1.391       .  A
C1084      C1098   1.429       .  A
C1084      C1092   1.384       .  A
C1085      C1093   1.384       .  A
C1085      C1096   1.401       .  A
C1086      C1094   1.377       .  A
C1086      C1097   1.397       .  A
C1087      C1088   1.376       .  A
C1087      H1099   1.078       .  S
C1088      H1100   1.082       .  S
C1089      C1090   1.385       .  A
C1089      H1101   1.078       .  S
C1090      H1102   1.083       .  S
C1091      C1092   1.377       .  A
C1091      H1103   1.082       .  S
C1092      H1104   1.082       .  S
C1093      C1094   1.370       .  A
C1093      H1105   1.078       .  S
C1094      H1106   1.083       .  S
C1097      C2545   1.494       .  S
N1109      C1114   1.359       .  A
N1109      C1113   1.359       .  A
N1109      H1141   1.031       .  S
N1110      C1117   1.354       .  A
N1110      C1118   1.352       .  A
N1111      C1116   1.353       .  A
N1111      C1115   1.349       .  A
N1111      H1142   1.042       .  S
N1112      C1119   1.357       .  A
N1112      C1120   1.358       .  A
C1113      C1121   1.398       .  A
C1114      C1130   1.434       .  A
C1114      C1122   1.381       .  A
C1115      C1123   1.391       .  A
C1115      C1132   1.419       .  A
C1116      C1131   1.409       .  A
C1116      C1124   1.381       .  A
C1117      C1129   1.428       .  A
C1117      C1125   1.391       .  A
C1118      C1132   1.414       .  A
C1118      C1126   1.382       .  A
C1119      C1127   1.386       .  A
C1119      C1130   1.408       .  A
C1120      C1128   1.386       .  A
C1121      C1122   1.384       .  A
C1121      H1133   1.077       .  S
C1122      H1134   1.081       .  S
C1123      C1124   1.372       .  A
C1123      H1135   1.079       .  S
C1124      H1136   1.082       .  S
C1125      C1126   1.370       .  A
C1125      H1137   1.081       .  S
C1126      H1138   1.082       .  S
C1127      C1128   1.363       .  A
C1127      H1139   1.083       .  S
C1128      H1140   1.083       .  S
C1130      C1166   1.530       .  S
C1131      C1267   1.521       .  S
C1132      C1164   1.522       .  S
N1143      C1148   1.352       .  A
N1143      C1147   1.355       .  A
N1143      H1175   1.037       .  S
N1144      C1151   1.348       .  A
N1144      C1152   1.350       .  A
N1145      C1150   1.350       .  A
N1145      C1149   1.359       .  A
N1145      H1176   1.044       .  S
N1146      C1153   1.341       .  A
N1146      C1154   1.348       .  A
C1147      C1155   1.397       .  A
C1147      C1163   1.436       .  A
C1148      C1164   1.413       .  A
C1148      C1156   1.380       .  A
C1149      C1157   1.395       .  A
C1149      C1166   1.437       .  A
C1150      C1165   1.422       .  A
C1150      C1158   1.383       .  A
C1151      C1163   1.427       .  A
C1151      C1159   1.392       .  A
C1152      C1166   1.417       .  A
C1152      C1160   1.384       .  A
C1153      C1161   1.381       .  A
C1153      C1164   1.399       .  A
C1154      C1162   1.394       .  A
C1154      C1165   1.414       .  A
C1155      C1156   1.377       .  A
C1155      H1167   1.080       .  S
C1156      H1168   1.082       .  S
C1157      C1158   1.386       .  A
C1157      H1169   1.078       .  S
C1158      H1170   1.083       .  S
C1159      C1160   1.382       .  A
C1159      H1171   1.081       .  S
C1160      H1172   1.083       .  S
C1161      C1162   1.373       .  A
C1161      H1173   1.083       .  S
C1162      H1174   1.077       .  S
C1165      C1301   1.508       .  S
N1177      C1182   1.349       .  A
N1177      C1181   1.347       .  A
N1177      H1209   1.036       .  S
N1178      C1185   1.355   1_655  A
N1178      C1186   1.360   1_655  A
N1179      C1184   1.347       .  A
N1179      C1183   1.357       .  A
N1179      H1210   1.043       .  S
N1180      C1187   1.356       .  A
N1180      C1188   1.353       .  A
C1181      C1189   1.377       .  A
C1181      C1197   1.406       .  A
C1182      C1190   1.400       .  A
C1183      C1191   1.390       .  A
C1183      C1200   1.419       .  A
C1184      C1199   1.413       .  A
C1184      C1192   1.385       .  A
C1185      C1197   1.410       .  A
C1185      C1193   1.385       .  A
C1186      C1194   1.384       .  A
C1187      C1195   1.394       .  A
C1187      C1198   1.437   1_556  A
C1188      C1196   1.381       .  A
C1188      C1199   1.418       .  A
C1189      C1190   1.379       .  A
C1189      H1201   1.082       .  S
C1190      H1202   1.079       .  S
C1191      C1192   1.373       .  A
C1191      H1203   1.076       .  S
C1192      H1204   1.083       .  S
C1193      C1194   1.363       .  A
C1193      H1205   1.083       .  S
C1194      H1206   1.083       .  S
C1195      C1196   1.370       .  A
C1195      H1207   1.079       .  S
C1196      H1208   1.082       .  S
C1197      C1234   1.521       .  S
C1199      C1232   1.525   1_455  S
C1200      C2048   1.524       .  S
N1211      C1216   1.352       .  A
N1211      C1215   1.357       .  A
N1211      H1243   1.040   1_655  S
N1212      C1219   1.360       .  A
N1212      C1220   1.357       .  A
N1213      C1218   1.353   1_655  A
N1213      C1217   1.353   1_655  A
N1213      H1244   1.044       .  S
N1214      C1221   1.344       .  A
N1214      C1222   1.349       .  A
C1215      C1223   1.394       .  A
C1215      C1231   1.428       .  A
C1216      C1232   1.410       .  A
C1216      C1224   1.381       .  A
C1217      C1225   1.396       .  A
C1217      C1234   1.427       .  A
C1218      C1233   1.405   1_455  A
C1218      C1226   1.377       .  A
C1219      C1231   1.437       .  A
C1219      C1227   1.389       .  A
C1220      C1234   1.434   1_655  A
C1220      C1228   1.386       .  A
C1221      C1229   1.388       .  A
C1221      C1232   1.409       .  A
C1222      C1230   1.385       .  A
C1222      C1233   1.404       .  A
C1223      C1224   1.374       .  A
C1223      H1235   1.081       .  S
C1224      H1236   1.083       .  S
C1225      C1226   1.370       .  A
C1225      H1237   1.074       .  S
C1226      H1238   1.083       .  S
C1227      C1228   1.379       .  A
C1227      H1239   1.080       .  S
C1228      H1240   1.082       .  S
C1229      C1230   1.376       .  A
C1229      H1241   1.082       .  S
C1230      H1242   1.082       .  S
C1231      C2324   1.524       .  S
C1233      C2409   1.493       .  S
N1245      C1250   1.355       .  A
N1245      C1249   1.361       .  A
N1245      H1277   1.041       .  S
N1246      C1253   1.348       .  A
N1246      C1254   1.348       .  A
N1247      C1252   1.356       .  A
N1247      C1251   1.341       .  A
N1247      H1278   1.044       .  S
N1248      C1255   1.353       .  A
N1248      C1256   1.353       .  A
C1249      C1257   1.388       .  A
C1249      C1265   1.430       .  A
C1250      C1266   1.428       .  A
C1250      C1258   1.388       .  A
C1251      C1259   1.383       .  A
C1251      C1268   1.405       .  A
C1252      C1260   1.395       .  A
C1253      C1261   1.396       .  A
C1254      C1268   1.400       .  A
C1254      C1262   1.378       .  A
C1255      C1263   1.394       .  A
C1255      C1266   1.427       .  A
C1256      C1264   1.382       .  A
C1256      C1267   1.418       .  A
C1257      C1258   1.382       .  A
C1257      H1269   1.081       .  S
C1258      H1270   1.082       .  S
C1259      C1260   1.380       .  A
C1259      H1271   1.083       .  S
C1260      H1272   1.077       .  S
C1261      C1262   1.369       .  A
C1261      H1273   1.080       .  S
C1262      H1274   1.083       .  S
C1263      C1264   1.377       .  A
C1263      H1275   1.078       .  S
C1264      H1276   1.082       .  S
C1266      C1300   1.518       .  S
C1268      C1302   1.515       .  S
N1279      C1284   1.351       .  A
N1279      C1283   1.350       .  A
N1279      H1311   1.039       .  S
N1280      C1287   1.355       .  A
N1280      C1288   1.354       .  A
N1281      C1286   1.347       .  A
N1281      C1285   1.342       .  A
N1281      H1312   1.044       .  S
N1282      C1289   1.357       .  A
N1282      C1290   1.358       .  A
C1283      C1291   1.400       .  A
C1283      C1299   1.434       .  A
C1284      C1300   1.411       .  A
C1284      C1292   1.377       .  A
C1285      C1293   1.389       .  A
C1285      C1302   1.403       .  A
C1286      C1301   1.402       .  A
C1286      C1294   1.385       .  A
C1287      C1299   1.435       .  A
C1287      C1295   1.393       .  A
C1288      C1302   1.420       .  A
C1288      C1296   1.382       .  A
C1289      C1297   1.384       .  A
C1289      C1300   1.404       .  A
C1290      C1298   1.384       .  A
C1290      C1301   1.401       .  A
C1291      C1292   1.378       .  A
C1291      H1303   1.080       .  S
C1292      H1304   1.082       .  S
C1293      C1294   1.373       .  A
C1293      H1305   1.082       .  S
C1294      H1306   1.082       .  S
C1295      C1296   1.372       .  A
C1295      H1307   1.080       .  S
C1296      H1308   1.082       .  S
C1297      C1298   1.357       .  A
C1297      H1309   1.083       .  S
C1298      H1310   1.083       .  S
O1313     Ni1321   1.912       .  S
O1313      C2307   1.279       .  A
O1314      C2308   1.278       .  A
O1315     Ni1977   1.926       .  S
O1315      C1325   1.282       .  A
O1316      C1654   1.284       .  A
O1318     Ni1322   1.922   1_545  S
O1319     Ni1322   1.913   1_655  S
O1319      C1324   1.280   1_565  A
O1320      C1323   1.279       .  A
Ni1321     O1971   1.917       .  S
C1323      O2297   1.280   1_554  A
C1323      C1351   1.462       .  S
C1324      O2298   1.278   1_554  A
C1324      C1352   1.457       .  S
C1325      C1526   1.518       .  S
C1326      O1644   1.282   1_554  A
C1326      C1390   1.512       .  S
O1327     Ni1335   1.907       .  S
O1327      C1993   1.278       .  A
O1328      C1994   1.279       .  A
O1329     Ni1991   1.918       .  S
O1330      C1340   1.283       .  A
O1332     Ni1336   1.910       .  S
O1332      C1339   1.279       .  A
O1333     Ni1336   1.911       .  S
O1333      C1338   1.280       .  A
O1334      C1337   1.281       .  A
Ni1335     O1985   1.927       .  S
C1337      O1983   1.279       .  A
C1337      C1365   1.465       .  S
C1338      O1984   1.277       .  A
C1338      C1366   1.455       .  S
C1339      C1423   1.508       .  S
O1341     Ni2005   1.913       .  S
O1341      C2007   1.279       .  A
O1342     Ni1349   1.913       .  S
O1342      C1352   1.279   1_565  A
O1343     Ni1349   1.942   1_545  S
O1343      C1353   1.284       .  A
O1344     Ni2005   1.934       .  S
O1344      C1354   1.289   1_554  A
O1345     Ni1350   1.903       .  S
O1345      C1682   1.275       .  A
O1346     Ni2006   1.909       .  S
O1346      C1681   1.282       .  A
O1347     Ni1350   1.914       .  S
O1347      C2336   1.280       .  A
O1348     Ni2006   1.907       .  S
O1348      C1679   1.279       .  A
Ni1349     O1997   1.913   1_565  S
Ni1349     O2000   1.935       .  S
Ni1349    Ni2334   2.379   1_564  S
Ni1350     O2002   1.905       .  S
Ni1350     O2004   1.915       .  S
Ni1350    Ni2333   2.379       .  S
C1351      O1997   1.280       .  A
C1351      O1676   1.279   1_554  A
C1352      O2331   1.279   1_554  A
C1353      O1674   1.278   1_554  A
C1353      C1593   1.511       .  S
C1354      O1673   1.271       .  A
C1354      C1457   1.509       .  S
O1355     Ni2019   1.914       .  S
O1355      C1365   1.281       .  A
O1356     Ni1363   1.914       .  S
O1356      C2022   1.280       .  A
O1357     Ni1363   1.924   1_545  S
O1357      C1367   1.282       .  A
O1358     Ni2019   1.923       .  S
O1358      C1368   1.281       .  A
O1359     Ni1364   1.925       .  S
O1359      C1368   1.284       .  A
O1360     Ni2020   1.904   1_545  S
O1360      C1367   1.278       .  A
O1361     Ni1364   1.905       .  S
O1361      C1366   1.277       .  A
O1362     Ni2020   1.912       .  S
O1362      C2021   1.279       .  A
Ni1363     O2011   1.913       .  S
Ni1363     O2014   1.926       .  S
Ni1363    Ni2020   2.379       .  S
Ni1364     O2016   1.916       .  S
Ni1364     O2018   1.916       .  S
Ni1364    Ni2019   2.378       .  S
C1365      O2018   1.279       .  A
C1366      O2012   1.280       .  A
C1367      C1627   1.513       .  S
C1368      C1491   1.518       .  S
N1369      C1374   1.357   1_655  A
N1369      C1373   1.354   1_655  A
N1369      H1401   1.040       .  S
N1370      C1377   1.344   1_655  A
N1370      C1378   1.348       .  A
N1371      C1376   1.351   1_455  A
N1371      C1375   1.351   1_455  A
N1371      H1402   1.042       .  S
N1372      C1379   1.359       .  A
N1372      C1380   1.360       .  A
C1373      C1381   1.379       .  A
C1373      C1389   1.411   1_455  A
C1374      C1718   1.433       .  A
C1374      C1382   1.395       .  A
C1375      C1383   1.375       .  A
C1375      C1392   1.402   1_655  A
C1376      C1391   1.427       .  A
C1376      C1384   1.395       .  A
C1377      C1389   1.408   1_455  A
C1377      C1385   1.388       .  A
C1378      C1720   1.405       .  A
C1378      C1386   1.385   1_655  A
C1379      C1387   1.389       .  A
C1379      C1390   1.436       .  A
C1380      C1388   1.386       .  A
C1380      C1391   1.436   1_455  A
C1381      C1382   1.372       .  A
C1381      H1393   1.083       .  S
C1382      H1394   1.080       .  S
C1383      C1384   1.376       .  A
C1383      H1395   1.082       .  S
C1384      H1396   1.071       .  S
C1385      C1386   1.375       .  A
C1385      H1397   1.082       .  S
C1386      H1398   1.082       .  S
C1387      C1388   1.379       .  A
C1387      H1399   1.081       .  S
C1388      H1400   1.082       .  S
C1389      C1426   1.527       .  S
C1390      C1702   1.432   1_554  A
C1391      C1424   1.526       .  S
C1392      C1706   1.389   1_554  A
N1403      C1408   1.350       .  A
N1403      C1407   1.352       .  A
N1403      H1435   1.037       .  S
N1404      C1411   1.354       .  A
N1404      C1412   1.352       .  A
N1405      C1410   1.354       .  A
N1405      C1409   1.351       .  A
N1405      H1436   1.043       .  S
N1406      C1413   1.357       .  A
N1406      C1414   1.361       .  A
C1407      C1415   1.399       .  A
C1407      C1423   1.432       .  A
C1408      C1424   1.409       .  A
C1408      C1416   1.377       .  A
C1409      C1417   1.381       .  A
C1409      C1426   1.410       .  A
C1410      C1425   1.417       .  A
C1410      C1418   1.391       .  A
C1411      C1423   1.429       .  A
C1411      C1419   1.391       .  A
C1412      C1426   1.414       .  A
C1412      C1420   1.382       .  A
C1413      C1421   1.386       .  A
C1413      C1424   1.411       .  A
C1414      C1422   1.383       .  A
C1414      C1425   1.407       .  A
C1415      C1416   1.374       .  A
C1415      H1427   1.078       .  S
C1416      H1428   1.082       .  S
C1417      C1418   1.365       .  A
C1417      H1429   1.080       .  S
C1418      H1430   1.074       .  S
C1419      C1420   1.371       .  A
C1419      H1431   1.081       .  S
C1420      H1432   1.082       .  S
C1421      C1422   1.366       .  A
C1421      H1433   1.083       .  S
C1422      H1434   1.082       .  S
N1437      C1442   1.355       .  A
N1437      C1441   1.354       .  A
N1437      H1469   1.035       .  S
N1438      C1445   1.351       .  A
N1438      C1446   1.349       .  A
N1439      C1444   1.351       .  A
N1439      C1443   1.348       .  A
N1439      H1470   1.040       .  S
N1440      C1447   1.358       .  A
N1440      C1448   1.359       .  A
C1441      C1449   1.399       .  A
C1441      C1785   1.439       .  A
C1442      C1458   1.420       .  A
C1442      C1450   1.378       .  A
C1443      C1451   1.390       .  A
C1443      C1460   1.418       .  A
C1444      C1459   1.413   1_554  A
C1444      C1452   1.384       .  A
C1445      C1457   1.423   1_554  A
C1445      C1453   1.391       .  A
C1446      C1460   1.408       .  A
C1446      C1454   1.380       .  A
C1447      C1455   1.388       .  A
C1447      C1458   1.409       .  A
C1448      C1456   1.384       .  A
C1448      C1787   1.403       .  A
C1449      C1450   1.380       .  A
C1449      H1461   1.078       .  S
C1450      H1462   1.082       .  S
C1451      C1452   1.377       .  A
C1451      H1463   1.081       .  S
C1452      H1464   1.082       .  S
C1453      C1454   1.368       .  A
C1453      H1465   1.081       .  S
C1454      H1466   1.082       .  S
C1455      C1456   1.359       .  A
C1455      H1467   1.083       .  S
C1456      H1468   1.082       .  S
C1457      C1769   1.444       .  A
C1458      C1494   1.529       .  S
C1459      C1595   1.522       .  S
C1459      C1776   1.407       .  A
C1460      C1492   1.518       .  S
N1471      C1476   1.353       .  A
N1471      C1475   1.358       .  A
N1471      H1503   1.038       .  S
N1472      C1479   1.354       .  A
N1472      C1480   1.355       .  A
N1473      C1478   1.353       .  A
N1473      C1477   1.357       .  A
N1473      H1504   1.044       .  S
N1474      C1481   1.340       .  A
N1474      C1482   1.348       .  A
C1475      C1483   1.396       .  A
C1475      C1491   1.435       .  A
C1476      C1492   1.414       .  A
C1476      C1484   1.380       .  A
C1477      C1485   1.393       .  A
C1477      C1494   1.432       .  A
C1478      C1493   1.418       .  A
C1478      C1486   1.381       .  A
C1479      C1491   1.435       .  A
C1479      C1487   1.392       .  A
C1480      C1494   1.426       .  A
C1480      C1488   1.384       .  A
C1481      C1489   1.381       .  A
C1481      C1492   1.395       .  A
C1482      C1490   1.392       .  A
C1482      C1493   1.411       .  A
C1483      C1484   1.373       .  A
C1483      H1495   1.079       .  S
C1484      H1496   1.082       .  S
C1485      C1486   1.379       .  A
C1485      H1497   1.075       .  S
C1486      H1498   1.080       .  S
C1487      C1488   1.379       .  A
C1487      H1499   1.080       .  S
C1488      H1500   1.082       .  S
C1489      C1490   1.372       .  A
C1489      H1501   1.083       .  S
C1490      H1502   1.077       .  S
C1493      C1629   1.511       .  S
N1505      C1510   1.354       .  A
N1505      C1509   1.357       .  A
N1505      H1537   1.038       .  S
N1506      C1513   1.348       .  A
N1506      C1514   1.352       .  A
N1507      C1512   1.356       .  A
N1507      C1511   1.353       .  A
N1507      H1538   1.042       .  S
N1508      C1515   1.358       .  A
N1508      C1516   1.358       .  A
C1509      C1517   1.377       .  A
C1509      C1525   1.415       .  A
C1510      C1854   1.439       .  A
C1510      C1518   1.399       .  A
C1511      C1519   1.377       .  A
C1511      C1528   1.409       .  A
C1512      C1527   1.431       .  A
C1512      C1520   1.393       .  A
C1513      C1525   1.399       .  A
C1513      C1521   1.384       .  A
C1514      C1856   1.393       .  A
C1514      C1522   1.380       .  A
C1515      C1523   1.390       .  A
C1515      C1526   1.435       .  A
C1516      C1524   1.386       .  A
C1516      C1527   1.431       .  A
C1517      C1518   1.379       .  A
C1517      H1529   1.082       .  S
C1518      H1530   1.078       .  S
C1519      C1520   1.379       .  A
C1519      H1531   1.080       .  S
C1520      H1532   1.075       .  S
C1521      C1522   1.371       .  A
C1521      H1533   1.080       .  S
C1522      H1534   1.083       .  S
C1523      C1524   1.378       .  A
C1523      H1535   1.081       .  S
C1524      H1536   1.082       .  S
C1525      C1562   1.528       .  S
C1526      C1838   1.439       .  A
C1527      C1560   1.528       .  S
C1528      C1842   1.393       .  A
N1539      C1544   1.353       .  A
N1539      C1543   1.351       .  A
N1539      H1571   1.038       .  S
N1540      C1547   1.361       .  A
N1540      C1548   1.360       .  A
N1541      C1546   1.357       .  A
N1541      C1545   1.354       .  A
N1541      H1572   1.042       .  S
N1542      C1549   1.350       .  A
N1542      C1550   1.356       .  A
C1543      C1551   1.403       .  A
C1543      C1559   1.438       .  A
C1544      C1560   1.412       .  A
C1544      C1552   1.376       .  A
C1545      C1553   1.393       .  A
C1545      C1562   1.433       .  A
C1546      C1561   1.412       .  A
C1546      C1554   1.378       .  A
C1547      C1559   1.439       .  A
C1547      C1555   1.390       .  A
C1548      C1562   1.430       .  A
C1548      C1556   1.384       .  A
C1549      C1557   1.390       .  A
C1549      C1560   1.406       .  A
C1550      C1558   1.380       .  A
C1550      C1561   1.395       .  A
C1551      C1552   1.377       .  A
C1551      H1563   1.076       .  S
C1552      H1564   1.082       .  S
C1553      C1554   1.379       .  A
C1553      H1565   1.074       .  S
C1554      H1566   1.082       .  S
C1555      C1556   1.376       .  A
C1555      H1567   1.081       .  S
C1556      H1568   1.082       .  S
C1557      C1558   1.372       .  A
C1557      H1569   1.083       .  S
C1558      H1570   1.083       .  S
N1573      C1578   1.353       .  A
N1573      C1577   1.361       .  A
N1573      H1605   1.039       .  S
N1574      C1581   1.346       .  A
N1574      C1582   1.348       .  A
N1575      C1580   1.354       .  A
N1575      C1579   1.343       .  A
N1575      H1606   1.044       .  S
N1576      C1583   1.356       .  A
N1576      C1584   1.354       .  A
C1577      C1585   1.388       .  A
C1577      C1593   1.429       .  A
C1578      C1594   1.428       .  A
C1578      C1586   1.388       .  A
C1579      C1587   1.378       .  A
C1579      C1596   1.401       .  A
C1580      C1923   1.420       .  A
C1580      C1588   1.394       .  A
C1581      C1921   1.421       .  A
C1581      C1589   1.393       .  A
C1582      C1596   1.399       .  A
C1582      C1590   1.379       .  A
C1583      C1591   1.394       .  A
C1583      C1594   1.432       .  A
C1584      C1592   1.381       .  A
C1584      C1595   1.420   1_554  A
C1585      C1586   1.382       .  A
C1585      H1597   1.081       .  S
C1586      H1598   1.082       .  S
C1587      C1588   1.371       .  A
C1587      H1599   1.081       .  S
C1588      H1600   1.074       .  S
C1589      C1590   1.368       .  A
C1589      H1601   1.081       .  S
C1590      H1602   1.082       .  S
C1591      C1592   1.377       .  A
C1591      H1603   1.076       .  S
C1592      H1604   1.082       .  S
C1593      C1909   1.426   1_554  A
C1594      C1628   1.521       .  S
C1595      C1908   1.422       .  A
C1596      C1630   1.519       .  S
N1607      C1612   1.353       .  A
N1607      C1611   1.352       .  A
N1607      H1639   1.040       .  S
N1608      C1615   1.358       .  A
N1608      C1616   1.355       .  A
N1609      C1614   1.350       .  A
N1609      C1613   1.343       .  A
N1609      H1640   1.045       .  S
N1610      C1617   1.355       .  A
N1610      C1618   1.357       .  A
C1611      C1619   1.400       .  A
C1611      C1627   1.436       .  A
C1612      C1628   1.411       .  A
C1612      C1620   1.376       .  A
C1613      C1621   1.390       .  A
C1613      C1630   1.406       .  A
C1614      C1629   1.402       .  A
C1614      C1622   1.384       .  A
C1615      C1627   1.436       .  A
C1615      C1623   1.393       .  A
C1616      C1630   1.420       .  A
C1616      C1624   1.381       .  A
C1617      C1625   1.385       .  A
C1617      C1628   1.402       .  A
C1618      C1626   1.385       .  A
C1618      C1629   1.399       .  A
C1619      C1620   1.377       .  A
C1619      H1631   1.080       .  S
C1620      H1632   1.082       .  S
C1621      C1622   1.372       .  A
C1621      H1633   1.082       .  S
C1622      H1634   1.082       .  S
C1623      C1624   1.367       .  A
C1623      H1635   1.077       .  S
C1624      H1636   1.082       .  S
C1625      C1626   1.357       .  A
C1625      H1637   1.083       .  S
C1626      H1638   1.083       .  S
O1641     Ni1649   1.913       .  S
O1641      C1979   1.279   1_556  A
O1642      C1980   1.277   1_556  A
O1643     Ni2305   1.930       .  S
O1643      C1653   1.283   1_556  A
O1646     Ni1650   1.915   1_545  S
O1647     Ni1650   1.910   1_645  S
O1647      C1652   1.279       .  A
O1648      C1651   1.279   1_565  A
Ni1649     O2299   1.918       .  S
C1651      O1969   1.278       .  A
C1651      C1679   1.457       .  S
C1652      O1970   1.279       .  A
C1652      C1680   1.458       .  S
C1653      C1854   1.517       .  S
C1654      C1718   1.521       .  S
O1655     Ni1663   1.909       .  S
O1655      C2321   1.278       .  A
O1656      C2322   1.278       .  A
O1657     Ni2319   1.920       .  S
O1658      C1668   1.287       .  A
O1660     Ni1664   1.913       .  S
O1660      C1667   1.281       .  A
O1661     Ni1664   1.912       .  S
O1661      C1666   1.280       .  A
O1662      C1665   1.283       .  A
Ni1663     O2313   1.922       .  S
C1665      O2311   1.278       .  A
C1665      C1693   1.466       .  S
C1666      O2312   1.279       .  A
C1666      C1694   1.462       .  S
C1667      C1751   1.517       .  S
O1669     Ni2333   1.909       .  S
O1669      C2335   1.279       .  A
O1670     Ni1677   1.910       .  S
O1670      C1680   1.279   1_565  A
O1671     Ni1677   1.938   1_545  S
O1671      C1681   1.283       .  A
O1672     Ni2333   1.926       .  S
O1672      C1682   1.286       .  A
O1673     Ni1678   1.894       .  S
O1674     Ni2334   1.896       .  S
O1675     Ni1678   1.915       .  S
O1675      C2008   1.281   1_556  A
O1676     Ni2334   1.912       .  S
Ni1677     O2325   1.911   1_565  S
Ni1677     O2328   1.931       .  S
Ni1677    Ni2006   2.380   1_565  S
Ni1678     O2330   1.897       .  S
Ni1678     O2332   1.918       .  S
Ni1678    Ni2005   2.378   1_556  S
C1679      O2325   1.279       .  A
C1680      O2003   1.279       .  A
C1681      C1921   1.513       .  S
C1682      C1785   1.510       .  S
O1683     Ni2347   1.919       .  S
O1683      C1693   1.282       .  A
O1684     Ni1691   1.916       .  S
O1684      C2350   1.281       .  A
O1685     Ni1691   1.924   1_545  S
O1685      C1695   1.281       .  A
O1686     Ni2347   1.930       .  S
O1686      C1696   1.282       .  A
O1687     Ni1692   1.920       .  S
O1687      C1696   1.283       .  A
O1688     Ni2348   1.915   1_545  S
O1688      C1695   1.281       .  A
O1689     Ni1692   1.905       .  S
O1689      C1694   1.277       .  A
O1690     Ni2348   1.908       .  S
O1690      C2349   1.278       .  A
Ni1691     O2339   1.913       .  S
Ni1691     O2342   1.926       .  S
Ni1691    Ni2348   2.379       .  S
Ni1692     O2344   1.915       .  S
Ni1692     O2346   1.913       .  S
Ni1692    Ni2347   2.379       .  S
C1693      O2346   1.278       .  A
C1694      O2340   1.282       .  A
C1695      C1955   1.516       .  S
C1696      C1819   1.515       .  S
N1697      C1702   1.349       .  A
N1697      C1701   1.352       .  A
N1697      H1729   1.039       .  S
N1698      C1705   1.348       .  A
N1698      C1706   1.353       .  A
N1699      C1704   1.353       .  A
N1699      C1703   1.353       .  A
N1699      H1730   1.043   1_655  S
N1700      C1707   1.358   1_655  A
N1700      C1708   1.357       .  A
C1701      C1709   1.374       .  A
C1701      C1717   1.402       .  A
C1702      C1710   1.402       .  A
C1703      C1711   1.377       .  A
C1703      C1720   1.407       .  A
C1704      C1719   1.427       .  A
C1704      C1712   1.392       .  A
C1705      C1717   1.401       .  A
C1705      C1713   1.391       .  A
C1706      C1714   1.379       .  A
C1707      C1715   1.390       .  A
C1707      C1718   1.435       .  A
C1708      C1716   1.385   1_655  A
C1708      C1719   1.430       .  A
C1709      C1710   1.375       .  A
C1709      H1721   1.082       .  S
C1710      H1722   1.079       .  S
C1711      C1712   1.377       .  A
C1711      H1723   1.082       .  S
C1712      H1724   1.074       .  S
C1713      C1714   1.370       .  A
C1713      H1725   1.083       .  S
C1714      H1726   1.083       .  S
C1715      C1716   1.378       .  A
C1715      H1727   1.080       .  S
C1716      H1728   1.082       .  S
C1717      C1754   1.521       .  S
C1719      C1752   1.522       .  S
N1731      C1736   1.352       .  A
N1731      C1735   1.352       .  A
N1731      H1763   1.037       .  S
N1732      C1739   1.361       .  A
N1732      C1740   1.358       .  A
N1733      C1738   1.354       .  A
N1733      C1737   1.353       .  A
N1733      H1764   1.042   1_455  S
N1734      C1741   1.346       .  A
N1734      C1742   1.352       .  A
C1735      C1743   1.401       .  A
C1735      C1751   1.437       .  A
C1736      C1752   1.405       .  A
C1736      C1744   1.374       .  A
C1737      C1745   1.396       .  A
C1737      C1754   1.430       .  A
C1738      C1753   1.408   1_455  A
C1738      C1746   1.379       .  A
C1739      C1751   1.435       .  A
C1739      C1747   1.387       .  A
C1740      C1754   1.435   1_655  A
C1740      C1748   1.388       .  A
C1741      C1749   1.388       .  A
C1741      C1752   1.400       .  A
C1742      C1750   1.379       .  A
C1742      C1753   1.390       .  A
C1743      C1744   1.374       .  A
C1743      H1755   1.078       .  S
C1744      H1756   1.081       .  S
C1745      C1746   1.381       .  A
C1745      H1757   1.078       .  S
C1746      H1758   1.083       .  S
C1747      C1748   1.378       .  A
C1747      H1759   1.081       .  S
C1748      H1760   1.082       .  S
C1749      C1750   1.372       .  A
C1749      H1761   1.083       .  S
C1750      H1762   1.081       .  S
N1765      C1770   1.354       .  A
N1765      C1769   1.355       .  A
N1765      H1797   1.035       .  S
N1766      C1773   1.353       .  A
N1766      C1774   1.353       .  A
N1767      C1772   1.351       .  A
N1767      C1771   1.346       .  A
N1767      H1798   1.041       .  S
N1768      C1775   1.359       .  A
N1768      C1776   1.360       .  A
C1769      C1777   1.400       .  A
C1770      C1786   1.425       .  A
C1770      C1778   1.379       .  A
C1771      C1779   1.390       .  A
C1771      C1788   1.414       .  A
C1772      C1787   1.408       .  A
C1772      C1780   1.383       .  A
C1773      C1785   1.427       .  A
C1773      C1781   1.390       .  A
C1774      C1788   1.413       .  A
C1774      C1782   1.380       .  A
C1775      C1783   1.387       .  A
C1775      C1786   1.412       .  A
C1776      C1784   1.385       .  A
C1777      C1778   1.383       .  A
C1777      H1789   1.077       .  S
C1778      H1790   1.082       .  S
C1779      C1780   1.373       .  A
C1779      H1791   1.081       .  S
C1780      H1792   1.082       .  S
C1781      C1782   1.366       .  A
C1781      H1793   1.081       .  S
C1782      H1794   1.081       .  S
C1783      C1784   1.362       .  A
C1783      H1795   1.083       .  S
C1784      H1796   1.082       .  S
C1786      C1822   1.529       .  S
C1787      C1923   1.521       .  S
C1788      C1820   1.515       .  S
N1799      C1804   1.349       .  A
N1799      C1803   1.354       .  A
N1799      H1831   1.039       .  S
N1800      C1807   1.354       .  A
N1800      C1808   1.353       .  A
N1801      C1806   1.354       .  A
N1801      C1805   1.358       .  A
N1801      H1832   1.044       .  S
N1802      C1809   1.340       .  A
N1802      C1810   1.348       .  A
C1803      C1811   1.396       .  A
C1803      C1819   1.431       .  A
C1804      C1820   1.406       .  A
C1804      C1812   1.379       .  A
C1805      C1813   1.395       .  A
C1805      C1822   1.435       .  A
C1806      C1821   1.424       .  A
C1806      C1814   1.383       .  A
C1807      C1819   1.434       .  A
C1807      C1815   1.391       .  A
C1808      C1822   1.426       .  A
C1808      C1816   1.384       .  A
C1809      C1817   1.380       .  A
C1809      C1820   1.395       .  A
C1810      C1818   1.393       .  A
C1810      C1821   1.413       .  A
C1811      C1812   1.376       .  A
C1811      H1823   1.080       .  S
C1812      H1824   1.083       .  S
C1813      C1814   1.384       .  A
C1813      H1825   1.078       .  S
C1814      H1826   1.083       .  S
C1815      C1816   1.380       .  A
C1815      H1827   1.080       .  S
C1816      H1828   1.082       .  S
C1817      C1818   1.372       .  A
C1817      H1829   1.083       .  S
C1818      H1830   1.076       .  S
C1821      C1957   1.513       .  S
N1833      C1838   1.355       .  A
N1833      C1837   1.355       .  A
N1833      H1865   1.038       .  S
N1834      C1841   1.349       .  A
N1834      C1842   1.354       .  A
N1835      C1840   1.356       .  A
N1835      C1839   1.351       .  A
N1835      H1866   1.041       .  S
N1836      C1843   1.358       .  A
N1836      C1844   1.361       .  A
C1837      C1845   1.377       .  A
C1837      C1853   1.415       .  A
C1838      C1846   1.400       .  A
C1839      C1847   1.378       .  A
C1839      C1856   1.408   1_556  A
C1840      C1855   1.432       .  A
C1840      C1848   1.393       .  A
C1841      C1853   1.402       .  A
C1841      C1849   1.385       .  A
C1842      C1850   1.379       .  A
C1843      C1851   1.389       .  A
C1843      C1854   1.433   1_556  A
C1844      C1852   1.385       .  A
C1844      C1855   1.432       .  A
C1845      C1846   1.377       .  A
C1845      H1857   1.082       .  S
C1846      H1858   1.077       .  S
C1847      C1848   1.382       .  A
C1847      H1859   1.081       .  S
C1848      H1860   1.075       .  S
C1849      C1850   1.371       .  A
C1849      H1861   1.080       .  S
C1850      H1862   1.083       .  S
C1851      C1852   1.379       .  A
C1851      H1863   1.082       .  S
C1852      H1864   1.082       .  S
C1853      C1890   1.528       .  S
C1855      C1888   1.534       .  S
N1867      C1872   1.356       .  A
N1867      C1871   1.354       .  A
N1867      H1899   1.039       .  S
N1868      C1875   1.360       .  A
N1868      C1876   1.359       .  A
N1869      C1874   1.355       .  A
N1869      C1873   1.354       .  A
N1869      H1900   1.043       .  S
N1870      C1877   1.352       .  A
N1870      C1878   1.357       .  A
C1871      C1879   1.403       .  A
C1871      C1887   1.442       .  A
C1872      C1888   1.419       .  A
C1872      C1880   1.376       .  A
C1873      C1881   1.394       .  A
C1873      C1890   1.431       .  A
C1874      C1889   1.413       .  A
C1874      C1882   1.380       .  A
C1875      C1887   1.437       .  A
C1875      C1883   1.390       .  A
C1876      C1890   1.428       .  A
C1876      C1884   1.384       .  A
C1877      C1885   1.390       .  A
C1877      C1888   1.410       .  A
C1878      C1886   1.381       .  A
C1878      C1889   1.399       .  A
C1879      C1880   1.376       .  A
C1879      H1891   1.075       .  S
C1880      H1892   1.082       .  S
C1881      C1882   1.380       .  A
C1881      H1893   1.076       .  S
C1882      H1894   1.082       .  S
C1883      C1884   1.377       .  A
C1883      H1895   1.081       .  S
C1884      H1896   1.082       .  S
C1885      C1886   1.373       .  A
C1885      H1897   1.083       .  S
C1886      H1898   1.082       .  S
N1901      C1906   1.357       .  A
N1901      C1905   1.362       .  A
N1901      H1933   1.039       .  S
N1902      C1909   1.345       .  A
N1902      C1910   1.348       .  A
N1903      C1908   1.354       .  A
N1903      C1907   1.342       .  A
N1903      H1934   1.044       .  S
N1904      C1911   1.355       .  A
N1904      C1912   1.355       .  A
C1905      C1913   1.388       .  A
C1905      C1921   1.432       .  A
C1906      C1922   1.432       .  A
C1906      C1914   1.388       .  A
C1907      C1915   1.381       .  A
C1907      C1924   1.403       .  A
C1908      C1916   1.395       .  A
C1909      C1917   1.396       .  A
C1910      C1924   1.398       .  A
C1910      C1918   1.377       .  A
C1911      C1919   1.393       .  A
C1911      C1922   1.430       .  A
C1912      C1920   1.382       .  A
C1912      C1923   1.420       .  A
C1913      C1914   1.381       .  A
C1913      H1925   1.081       .  S
C1914      H1926   1.082       .  S
C1915      C1916   1.380       .  A
C1915      H1927   1.082       .  S
C1916      H1928   1.077       .  S
C1917      C1918   1.370       .  A
C1917      H1929   1.081       .  S
C1918      H1930   1.082       .  S
C1919      C1920   1.376       .  A
C1919      H1931   1.077       .  S
C1920      H1932   1.083       .  S
C1922      C1956   1.523       .  S
C1924      C1958   1.518       .  S
N1935      C1940   1.352       .  A
N1935      C1939   1.353       .  A
N1935      H1967   1.039       .  S
N1936      C1943   1.358       .  A
N1936      C1944   1.355       .  A
N1937      C1942   1.350       .  A
N1937      C1941   1.344       .  A
N1937      H1968   1.043       .  S
N1938      C1945   1.357       .  A
N1938      C1946   1.359       .  A
C1939      C1947   1.399       .  A
C1939      C1955   1.436       .  A
C1940      C1956   1.412       .  A
C1940      C1948   1.377       .  A
C1941      C1949   1.389       .  A
C1941      C1958   1.406       .  A
C1942      C1957   1.403       .  A
C1942      C1950   1.384       .  A
C1943      C1955   1.439       .  A
C1943      C1951   1.394       .  A
C1944      C1958   1.423       .  A
C1944      C1952   1.382       .  A
C1945      C1953   1.385       .  A
C1945      C1956   1.406       .  A
C1946      C1954   1.385       .  A
C1946      C1957   1.402       .  A
C1947      C1948   1.380       .  A
C1947      H1959   1.080       .  S
C1948      H1960   1.082       .  S
C1949      C1950   1.372       .  A
C1949      H1961   1.082       .  S
C1950      H1962   1.082       .  S
C1951      C1952   1.371       .  A
C1951      H1963   1.078       .  S
C1952      H1964   1.082       .  S
C1953      C1954   1.358       .  A
C1953      H1965   1.083       .  S
C1954      H1966   1.083       .  S
O1969     Ni1977   1.906       .  S
O1971      C1981   1.279       .  A
O1972      C2310   1.284       .  A
O1974     Ni1978   1.915       .  S
O1975     Ni1978   1.918   1_655  S
O1975      C1980   1.282       .  A
O1976      C1979   1.281       .  A
C1979      C2007   1.466       .  S
C1980      C2008   1.461       .  S
C1981      C2182   1.514       .  S
C1982      O2300   1.276   1_554  A
C1982      C2046   1.512   1_554  S
O1983     Ni1991   1.910       .  S
O1986      C1996   1.283       .  A
O1988     Ni1992   1.916   1_565  S
O1988      C1995   1.282       .  A
O1989     Ni1992   1.910   1_565  S
O1989      C1994   1.280       .  A
O1990      C1993   1.281   1_545  A
C1993      C2021   1.461       .  S
C1994      C2022   1.460       .  S
C1995      C2079   1.509       .  S
O1998     Ni2005   1.908       .  S
O1998      C2008   1.277       .  A
O1999     Ni2005   1.951       .  S
O1999      C2009   1.286       .  A
O2000      C2010   1.288   1_554  A
O2001     Ni2006   1.915   1_565  S
O2001      C2338   1.277       .  A
O2002      C2337   1.281       .  A
O2003     Ni2006   1.909       .  S
O2004      C2335   1.280       .  A
C2007      O2332   1.281   1_554  A
C2009      O2330   1.277   1_554  A
C2009      C2249   1.516       .  S
C2010      O2329   1.274       .  A
C2010      C2113   1.515       .  S
O2011      C2021   1.280       .  A
O2012     Ni2019   1.910       .  S
O2013     Ni2019   1.911       .  S
O2013      C2023   1.277       .  A
O2014      C2024   1.283       .  A
O2015     Ni2020   1.906       .  S
O2015      C2024   1.279       .  A
O2016      C2023   1.283       .  A
O2017     Ni2020   1.908       .  S
O2017      C2022   1.278       .  A
C2023      C2283   1.510       .  S
C2024      C2147   1.507       .  S
N2025      C2030   1.353       .  A
N2025      C2029   1.354       .  A
N2025      H2057   1.038       .  S
N2026      C2033   1.346       .  A
N2026      C2034   1.352       .  A
N2027      C2032   1.352       .  A
N2027      C2031   1.358       .  A
N2027      H2058   1.044   1_455  S
N2028      C2035   1.358       .  A
N2028      C2036   1.355       .  A
C2029      C2037   1.374       .  A
C2029      C2045   1.408       .  A
C2030      C2374   1.437       .  A
C2030      C2038   1.402       .  A
C2031      C2039   1.390       .  A
C2031      C2048   1.420   1_554  A
C2032      C2047   1.415       .  A
C2032      C2040   1.384       .  A
C2033      C2045   1.398       .  A
C2033      C2041   1.389       .  A
C2034      C2376   1.388       .  A
C2034      C2042   1.379       .  A
C2035      C2043   1.390       .  A
C2035      C2046   1.431   1_554  A
C2036      C2044   1.384       .  A
C2036      C2047   1.418       .  A
C2037      C2038   1.375       .  A
C2037      H2049   1.082       .  S
C2038      H2050   1.077       .  S
C2039      C2040   1.370       .  A
C2039      H2051   1.076       .  S
C2040      H2052   1.082       .  S
C2041      C2042   1.373       .  A
C2041      H2053   1.083       .  S
C2042      H2054   1.083       .  S
C2043      C2044   1.369       .  A
C2043      H2055   1.081       .  S
C2044      H2056   1.082       .  S
C2045      C2082   1.524       .  S
C2046      C2358   1.439       .  A
C2047      C2080   1.528   1_455  S
C2048      C2362   1.402       .  A
N2059      C2064   1.353       .  A
N2059      C2063   1.353       .  A
N2059      H2091   1.037       .  S
N2060      C2067   1.354       .  A
N2060      C2068   1.355       .  A
N2061      C2066   1.351   1_655  A
N2061      C2065   1.356   1_655  A
N2061      H2092   1.044       .  S
N2062      C2069   1.344       .  A
N2062      C2070   1.344       .  A
C2063      C2071   1.397       .  A
C2063      C2079   1.433       .  A
C2064      C2080   1.411       .  A
C2064      C2072   1.378       .  A
C2065      C2073   1.393       .  A
C2065      C2082   1.427       .  A
C2066      C2081   1.414   1_455  A
C2066      C2074   1.382       .  A
C2067      C2079   1.432       .  A
C2067      C2075   1.391       .  A
C2068      C2082   1.424   1_655  A
C2068      C2076   1.384       .  A
C2069      C2077   1.386       .  A
C2069      C2080   1.408       .  A
C2070      C2078   1.389       .  A
C2070      C2081   1.408       .  A
C2071      C2072   1.375       .  A
C2071      H2083   1.080       .  S
C2072      H2084   1.082       .  S
C2073      C2074   1.381       .  A
C2073      H2085   1.078       .  S
C2074      H2086   1.083       .  S
C2075      C2076   1.378       .  A
C2075      H2087   1.081       .  S
C2076      H2088   1.082       .  S
C2077      C2078   1.378       .  A
C2077      H2089   1.083       .  S
C2078      H2090   1.082       .  S
N2093      C2098   1.354       .  A
N2093      C2097   1.356       .  A
N2093      H2125   1.038       .  S
N2094      C2101   1.354       .  A
N2094      C2102   1.351       .  A
N2095      C2100   1.354       .  A
N2095      C2099   1.349       .  A
N2095      H2126   1.044       .  S
N2096      C2103   1.358       .  A
N2096      C2104   1.358       .  A
C2097      C2105   1.399       .  A
C2097      C2441   1.442       .  A
C2098      C2114   1.426       .  A
C2098      C2106   1.380       .  A
C2099      C2107   1.390       .  A
C2099      C2116   1.416       .  A
C2100      C2115   1.414   1_554  A
C2100      C2108   1.385       .  A
C2101      C2113   1.425   1_554  A
C2101      C2109   1.391       .  A
C2102      C2116   1.410       .  A
C2102      C2110   1.382       .  A
C2103      C2111   1.385       .  A
C2103      C2114   1.407       .  A
C2104      C2112   1.385       .  A
C2104      C2443   1.402       .  A
C2105      C2106   1.381       .  A
C2105      H2117   1.077       .  S
C2106      H2118   1.082       .  S
C2107      C2108   1.375       .  A
C2107      H2119   1.082       .  S
C2108      H2120   1.082       .  S
C2109      C2110   1.370       .  A
C2109      H2121   1.081       .  S
C2110      H2122   1.082       .  S
C2111      C2112   1.360       .  A
C2111      H2123   1.083       .  S
C2112      H2124   1.083       .  S
C2113      C2425   1.445       .  A
C2114      C2150   1.523       .  S
C2115      C2251   1.518       .  S
C2115      C2432   1.397       .  A
C2116      C2148   1.520       .  S
N2127      C2132   1.353       .  A
N2127      C2131   1.355       .  A
N2127      H2159   1.038       .  S
N2128      C2135   1.349       .  A
N2128      C2136   1.351       .  A
N2129      C2134   1.351       .  A
N2129      C2133   1.357       .  A
N2129      H2160   1.044       .  S
N2130      C2137   1.342       .  A
N2130      C2138   1.349       .  A
C2131      C2139   1.396       .  A
C2131      C2147   1.434       .  A
C2132      C2148   1.412       .  A
C2132      C2140   1.380       .  A
C2133      C2141   1.394       .  A
C2133      C2150   1.431       .  A
C2134      C2149   1.420       .  A
C2134      C2142   1.384       .  A
C2135      C2147   1.426       .  A
C2135      C2143   1.391       .  A
C2136      C2150   1.418       .  A
C2136      C2144   1.384       .  A
C2137      C2145   1.381       .  A
C2137      C2148   1.401       .  A
C2138      C2146   1.392       .  A
C2138      C2149   1.415       .  A
C2139      C2140   1.374       .  A
C2139      H2151   1.080       .  S
C2140      H2152   1.082       .  S
C2141      C2142   1.384       .  A
C2141      H2153   1.078       .  S
C2142      H2154   1.082       .  S
C2143      C2144   1.379       .  A
C2143      H2155   1.081       .  S
C2144      H2156   1.083       .  S
C2145      C2146   1.372       .  A
C2145      H2157   1.083       .  S
C2146      H2158   1.075       .  S
C2149      C2285   1.512       .  S
N2161      C2166   1.350       .  A
N2161      C2165   1.346       .  A
N2161      H2193   1.038       .  S
N2162      C2169   1.356       .  A
N2162      C2170   1.362       .  A
N2163      C2168   1.351       .  A
N2163      C2167   1.358       .  A
N2163      H2194   1.045       .  S
N2164      C2171   1.359       .  A
N2164      C2172   1.354       .  A
C2165      C2173   1.378       .  A
C2165      C2181   1.407       .  A
C2166      C2510   1.431   1_554  A
C2166      C2174   1.399       .  A
C2167      C2175   1.392       .  A
C2167      C2184   1.422       .  A
C2168      C2183   1.411       .  A
C2168      C2176   1.382       .  A
C2169      C2181   1.410       .  A
C2169      C2177   1.383       .  A
C2170      C2512   1.404   1_554  A
C2170      C2178   1.386       .  A
C2171      C2179   1.392       .  A
C2171      C2182   1.438       .  A
C2172      C2180   1.383       .  A
C2172      C2183   1.423       .  A
C2173      C2174   1.381       .  A
C2173      H2185   1.082       .  S
C2174      H2186   1.080       .  S
C2175      C2176   1.370       .  A
C2175      H2187   1.074       .  S
C2176      H2188   1.083       .  S
C2177      C2178   1.360       .  A
C2177      H2189   1.083       .  S
C2178      H2190   1.083   1_554  S
C2179      C2180   1.372       .  A
C2179      H2191   1.078       .  S
C2180      H2192   1.081       .  S
C2181      C2218   1.523       .  S
C2182      C2494   1.430       .  A
C2183      C2216   1.530       .  S
C2184      C2498   1.406       .  A
N2195      C2200   1.353       .  A
N2195      C2199   1.355       .  A
N2195      H2227   1.041       .  S
N2196      C2203   1.360       .  A
N2196      C2204   1.356       .  A
N2197      C2202   1.356       .  A
N2197      C2201   1.357       .  A
N2197      H2228   1.042       .  S
N2198      C2205   1.347       .  A
N2198      C2206   1.351       .  A
C2199      C2207   1.393       .  A
C2199      C2215   1.425       .  A
C2200      C2216   1.408       .  A
C2200      C2208   1.381       .  A
C2201      C2209   1.396       .  A
C2201      C2218   1.433       .  A
C2202      C2217   1.411       .  A
C2202      C2210   1.375       .  A
C2203      C2215   1.432       .  A
C2203      C2211   1.387       .  A
C2204      C2218   1.435       .  A
C2204      C2212   1.388       .  A
C2205      C2213   1.388       .  A
C2205      C2216   1.412       .  A
C2206      C2214   1.384       .  A
C2206      C2217   1.405       .  A
C2207      C2208   1.373       .  A
C2207      H2219   1.082       .  S
C2208      H2220   1.083       .  S
C2209      C2210   1.370       .  A
C2209      H2221   1.072       .  S
C2210      H2222   1.081       .  S
C2211      C2212   1.377       .  A
C2211      H2223   1.080       .  S
C2212      H2224   1.082       .  S
C2213      C2214   1.374       .  A
C2213      H2225   1.082       .  S
C2214      H2226   1.082       .  S
N2229      C2234   1.354       .  A
N2229      C2233   1.363       .  A
N2229      H2261   1.041       .  S
N2230      C2237   1.346       .  A
N2230      C2238   1.348       .  A
N2231      C2236   1.357       .  A
N2231      C2235   1.346       .  A
N2231      H2262   1.043       .  S
N2232      C2239   1.349       .  A
N2232      C2240   1.351       .  A
C2233      C2241   1.387       .  A
C2233      C2249   1.431       .  A
C2234      C2250   1.431       .  A
C2234      C2242   1.389       .  A
C2235      C2243   1.381       .  A
C2235      C2252   1.408       .  A
C2236      C2579   1.425       .  A
C2236      C2244   1.394       .  A
C2237      C2577   1.423       .  A
C2237      C2245   1.396       .  A
C2238      C2252   1.398       .  A
C2238      C2246   1.379       .  A
C2239      C2247   1.392       .  A
C2239      C2250   1.420       .  A
C2240      C2248   1.380       .  A
C2240      C2251   1.410   1_554  A
C2241      C2242   1.382       .  A
C2241      H2253   1.081       .  S
C2242      H2254   1.082       .  S
C2243      C2244   1.379       .  A
C2243      H2255   1.082       .  S
C2244      H2256   1.077       .  S
C2245      C2246   1.368       .  A
C2245      H2257   1.081       .  S
C2246      H2258   1.083       .  S
C2247      C2248   1.374       .  A
C2247      H2259   1.076       .  S
C2248      H2260   1.083       .  S
C2249      C2565   1.429   1_554  A
C2250      C2284   1.511       .  S
C2251      C2564   1.422       .  A
C2252      C2286   1.524       .  S
N2263      C2268   1.347       .  A
N2263      C2267   1.347       .  A
N2263      H2295   1.039       .  S
N2264      C2271   1.361       .  A
N2264      C2272   1.358       .  A
N2265      C2270   1.350       .  A
N2265      C2269   1.343       .  A
N2265      H2296   1.044       .  S
N2266      C2273   1.357       .  A
N2266      C2274   1.359       .  A
C2267      C2275   1.400       .  A
C2267      C2283   1.426       .  A
C2268      C2284   1.401       .  A
C2268      C2276   1.376       .  A
C2269      C2277   1.390       .  A
C2269      C2286   1.407       .  A
C2270      C2285   1.405       .  A
C2270      C2278   1.385       .  A
C2271      C2283   1.441       .  A
C2271      C2279   1.392       .  A
C2272      C2286   1.429       .  A
C2272      C2280   1.382       .  A
C2273      C2281   1.386       .  A
C2273      C2284   1.407       .  A
C2274      C2282   1.383       .  A
C2274      C2285   1.401       .  A
C2275      C2276   1.375       .  A
C2275      H2287   1.080       .  S
C2276      H2288   1.082       .  S
C2277      C2278   1.371       .  A
C2277      H2289   1.082       .  S
C2278      H2290   1.081       .  S
C2279      C2280   1.370       .  A
C2279      H2291   1.078       .  S
C2280      H2292   1.082       .  S
C2281      C2282   1.356       .  A
C2281      H2293   1.083       .  S
C2282      H2294   1.083       .  S
O2297     Ni2305   1.914       .  S
O2299      C2309   1.279       .  A
O2302     Ni2306   1.918       .  S
O2303     Ni2306   1.912   1_655  S
O2303      C2308   1.280       .  A
O2304      C2307   1.280       .  A
C2307      C2335   1.461       .  S
C2308      C2336   1.459       .  S
C2309      C2510   1.514       .  S
C2310      C2374   1.519       .  S
O2311     Ni2319   1.908       .  S
O2314      C2324   1.288       .  A
O2316     Ni2320   1.915   1_565  S
O2316      C2323   1.280       .  A
O2317     Ni2320   1.913       .  S
O2317      C2322   1.280   1_545  A
O2318      C2321   1.280       .  A
C2321      C2349   1.458       .  S
C2322      C2350   1.460       .  S
C2323      C2407   1.519       .  S
O2326     Ni2333   1.907       .  S
O2326      C2336   1.278       .  A
O2327     Ni2333   1.938       .  S
O2327      C2337   1.283       .  A
O2328      C2338   1.287       .  A
O2329     Ni2334   1.905   1_565  S
O2331     Ni2334   1.907       .  S
C2337      C2577   1.514       .  S
C2338      C2441   1.517       .  S
O2339      C2349   1.280       .  A
O2340     Ni2347   1.921       .  S
O2341     Ni2347   1.922       .  S
O2341      C2351   1.280       .  A
O2342      C2352   1.282       .  A
O2343     Ni2348   1.915       .  S
O2343      C2352   1.281       .  A
O2344      C2351   1.282       .  A
O2345     Ni2348   1.905       .  S
O2345      C2350   1.278       .  A
C2351      C2611   1.514       .  S
C2352      C2475   1.510       .  S
N2353      C2358   1.354       .  A
N2353      C2357   1.354       .  A
N2353      H2385   1.038       .  S
N2354      C2361   1.359       .  A
N2354      C2362   1.360       .  A
N2355      C2360   1.351       .  A
N2355      C2359   1.355       .  A
N2355      H2386   1.044   1_655  S
N2356      C2363   1.362       .  A
N2356      C2364   1.361       .  A
C2357      C2365   1.376       .  A
C2357      C2373   1.414       .  A
C2358      C2366   1.402       .  A
C2359      C2367   1.378       .  A
C2359      C2376   1.407   1_655  A
C2360      C2375   1.428       .  A
C2360      C2368   1.392       .  A
C2361      C2373   1.413       .  A
C2361      C2369   1.390       .  A
C2362      C2370   1.380       .  A
C2363      C2371   1.389       .  A
C2363      C2374   1.440       .  A
C2364      C2372   1.386       .  A
C2364      C2375   1.436   1_455  A
C2365      C2366   1.375       .  A
C2365      H2377   1.082       .  S
C2366      H2378   1.076       .  S
C2367      C2368   1.381       .  A
C2367      H2379   1.082       .  S
C2368      H2380   1.072       .  S
C2369      C2370   1.366       .  A
C2369      H2381   1.083       .  S
C2370      H2382   1.083       .  S
C2371      C2372   1.379       .  A
C2371      H2383   1.081       .  S
C2372      H2384   1.082       .  S
C2373      C2410   1.529       .  S
C2375      C2408   1.530       .  S
N2387      C2392   1.357       .  A
N2387      C2391   1.355       .  A
N2387      H2419   1.039       .  S
N2388      C2395   1.359       .  A
N2388      C2396   1.361       .  A
N2389      C2394   1.348       .  A
N2389      C2393   1.352       .  A
N2389      H2420   1.043   1_455  S
N2390      C2397   1.348       .  A
N2390      C2398   1.352       .  A
C2391      C2399   1.402       .  A
C2391      C2407   1.441       .  A
C2392      C2408   1.410       .  A
C2392      C2400   1.374       .  A
C2393      C2401   1.395       .  A
C2393      C2410   1.426       .  A
C2394      C2409   1.404   1_455  A
C2394      C2402   1.380       .  A
C2395      C2407   1.434       .  A
C2395      C2403   1.388       .  A
C2396      C2410   1.435   1_655  A
C2396      C2404   1.386       .  A
C2397      C2405   1.388       .  A
C2397      C2408   1.403       .  A
C2398      C2406   1.378       .  A
C2398      C2409   1.395       .  A
C2399      C2400   1.373       .  A
C2399      H2411   1.077       .  S
C2400      H2412   1.082       .  S
C2401      C2402   1.383       .  A
C2401      H2413   1.078       .  S
C2402      H2414   1.083       .  S
C2403      C2404   1.380       .  A
C2403      H2415   1.081       .  S
C2404      H2416   1.082       .  S
C2405      C2406   1.374       .  A
C2405      H2417   1.082       .  S
C2406      H2418   1.083       .  S
N2421      C2426   1.357       .  A
N2421      C2425   1.358       .  A
N2421      H2453   1.037       .  S
N2422      C2429   1.355       .  A
N2422      C2430   1.352       .  A
N2423      C2428   1.355       .  A
N2423      C2427   1.350       .  A
N2423      H2454   1.042       .  S
N2424      C2431   1.355       .  A
N2424      C2432   1.356       .  A
C2425      C2433   1.400       .  A
C2426      C2442   1.428       .  A
C2426      C2434   1.379       .  A
C2427      C2435   1.391       .  A
C2427      C2444   1.421       .  A
C2428      C2443   1.415       .  A
C2428      C2436   1.383       .  A
C2429      C2441   1.428       .  A
C2429      C2437   1.390       .  A
C2430      C2444   1.413       .  A
C2430      C2438   1.382       .  A
C2431      C2439   1.385       .  A
C2431      C2442   1.402       .  A
C2432      C2440   1.384       .  A
C2433      C2434   1.380       .  A
C2433      H2445   1.076       .  S
C2434      H2446   1.082       .  S
C2435      C2436   1.375       .  A
C2435      H2447   1.081       .  S
C2436      H2448   1.082       .  S
C2437      C2438   1.369       .  A
C2437      H2449   1.081       .  S
C2438      H2450   1.082       .  S
C2439      C2440   1.361       .  A
C2439      H2451   1.083       .  S
C2440      H2452   1.083       .  S
C2442      C2478   1.524       .  S
C2443      C2579   1.525       .  S
C2444      C2476   1.521       .  S
N2455      C2460   1.353       .  A
N2455      C2459   1.356       .  A
N2455      H2487   1.038       .  S
N2456      C2463   1.350       .  A
N2456      C2464   1.351       .  A
N2457      C2462   1.353       .  A
N2457      C2461   1.358       .  A
N2457      H2488   1.044       .  S
N2458      C2465   1.340       .  A
N2458      C2466   1.347       .  A
C2459      C2467   1.395       .  A
C2459      C2475   1.434       .  A
C2460      C2476   1.413       .  A
C2460      C2468   1.380       .  A
C2461      C2469   1.394       .  A
C2461      C2478   1.434       .  A
C2462      C2477   1.425       .  A
C2462      C2470   1.384       .  A
C2463      C2475   1.428       .  A
C2463      C2471   1.392       .  A
C2464      C2478   1.417       .  A
C2464      C2472   1.384       .  A
C2465      C2473   1.380       .  A
C2465      C2476   1.396       .  A
C2466      C2474   1.393       .  A
C2466      C2477   1.412       .  A
C2467      C2468   1.376       .  A
C2467      H2479   1.080       .  S
C2468      H2480   1.082       .  S
C2469      C2470   1.386       .  A
C2469      H2481   1.079       .  S
C2470      H2482   1.082       .  S
C2471      C2472   1.379       .  A
C2471      H2483   1.080       .  S
C2472      H2484   1.083       .  S
C2473      C2474   1.372       .  A
C2473      H2485   1.083       .  S
C2474      H2486   1.075       .  S
C2477      C2613   1.515       .  S
N2489      C2494   1.350       .  A
N2489      C2493   1.348       .  A
N2489      H2521   1.040       .  S
N2490      C2497   1.357       .  A
N2490      C2498   1.362       .  A
N2491      C2496   1.351       .  A
N2491      C2495   1.360       .  A
N2491      H2522   1.044       .  S
N2492      C2499   1.358       .  A
N2492      C2500   1.352       .  A
C2493      C2501   1.378       .  A
C2493      C2509   1.408       .  A
C2494      C2502   1.398       .  A
C2495      C2503   1.391       .  A
C2495      C2512   1.425       .  A
C2496      C2511   1.415       .  A
C2496      C2504   1.384       .  A
C2497      C2509   1.411       .  A
C2497      C2505   1.384       .  A
C2498      C2506   1.386       .  A
C2499      C2507   1.392       .  A
C2499      C2510   1.439       .  A
C2500      C2508   1.384       .  A
C2500      C2511   1.423       .  A
C2501      C2502   1.379       .  A
C2501      H2513   1.082       .  S
C2502      H2514   1.080       .  S
C2503      C2504   1.370       .  A
C2503      H2515   1.074       .  S
C2504      H2516   1.083       .  S
C2505      C2506   1.361       .  A
C2505      H2517   1.083       .  S
C2506      H2518   1.083       .  S
C2507      C2508   1.373       .  A
C2507      H2519   1.078       .  S
C2508      H2520   1.082       .  S
C2509      C2546   1.525       .  S
C2511      C2544   1.528       .  S
N2523      C2528   1.353       .  A
N2523      C2527   1.354       .  A
N2523      H2555   1.041       .  S
N2524      C2531   1.359       .  A
N2524      C2532   1.357       .  A
N2525      C2530   1.354       .  A
N2525      C2529   1.356       .  A
N2525      H2556   1.043       .  S
N2526      C2533   1.344       .  A
N2526      C2534   1.348       .  A
C2527      C2535   1.394       .  A
C2527      C2543   1.426       .  A
C2528      C2544   1.406       .  A
C2528      C2536   1.380       .  A
C2529      C2537   1.396       .  A
C2529      C2546   1.431       .  A
C2530      C2545   1.408       .  A
C2530      C2538   1.376       .  A
C2531      C2543   1.433       .  A
C2531      C2539   1.389       .  A
C2532      C2546   1.435       .  A
C2532      C2540   1.388       .  A
C2533      C2541   1.388       .  A
C2533      C2544   1.408       .  A
C2534      C2542   1.385       .  A
C2534      C2545   1.402       .  A
C2535      C2536   1.374       .  A
C2535      H2547   1.081       .  S
C2536      H2548   1.083       .  S
C2537      C2538   1.371       .  A
C2537      H2549   1.072       .  S
C2538      H2550   1.082       .  S
C2539      C2540   1.378       .  A
C2539      H2551   1.080       .  S
C2540      H2552   1.082       .  S
C2541      C2542   1.375       .  A
C2541      H2553   1.082       .  S
C2542      H2554   1.082       .  S
N2557      C2562   1.358       .  A
N2557      C2561   1.364       .  A
N2557      H2589   1.040       .  S
N2558      C2565   1.347       .  A
N2558      C2566   1.348       .  A
N2559      C2564   1.355       .  A
N2559      C2563   1.341       .  A
N2559      H2590   1.044       .  S
N2560      C2567   1.353       .  A
N2560      C2568   1.353       .  A
C2561      C2569   1.388       .  A
C2561      C2577   1.433       .  A
C2562      C2578   1.435       .  A
C2562      C2570   1.388       .  A
C2563      C2571   1.382       .  A
C2563      C2580   1.404       .  A
C2564      C2572   1.394       .  A
C2565      C2573   1.398       .  A
C2566      C2580   1.397       .  A
C2566      C2574   1.377       .  A
C2567      C2575   1.392       .  A
C2567      C2578   1.425       .  A
C2568      C2576   1.382       .  A
C2568      C2579   1.418       .  A
C2569      C2570   1.380       .  A
C2569      H2581   1.081       .  S
C2570      H2582   1.082       .  S
C2571      C2572   1.381       .  A
C2571      H2583   1.083       .  S
C2572      H2584   1.078       .  S
C2573      C2574   1.368       .  A
C2573      H2585   1.080       .  S
C2574      H2586   1.083       .  S
C2575      C2576   1.375       .  A
C2575      H2587   1.076       .  S
C2576      H2588   1.083       .  S
C2578      C2612   1.523       .  S
C2580      C2614   1.518       .  S
N2591      C2596   1.350       .  A
N2591      C2595   1.350       .  A
N2591      H2623   1.037       .  S
N2592      C2599   1.359       .  A
N2592      C2600   1.355       .  A
N2593      C2598   1.351       .  A
N2593      C2597   1.344       .  A
N2593      H2624   1.043       .  S
N2594      C2601   1.359       .  A
N2594      C2602   1.361       .  A
C2595      C2603   1.399       .  A
C2595      C2611   1.432       .  A
C2596      C2612   1.409       .  A
C2596      C2604   1.377       .  A
C2597      C2605   1.389       .  A
C2597      C2614   1.405       .  A
C2598      C2613   1.404       .  A
C2598      C2606   1.385       .  A
C2599      C2611   1.438       .  A
C2599      C2607   1.392       .  A
C2600      C2614   1.425       .  A
C2600      C2608   1.383       .  A
C2601      C2609   1.386       .  A
C2601      C2612   1.411       .  A
C2602      C2610   1.385       .  A
C2602      C2613   1.405       .  A
C2603      C2604   1.378       .  A
C2603      H2615   1.080       .  S
C2604      H2616   1.082       .  S
C2605      C2606   1.370       .  A
C2605      H2617   1.082       .  S
C2606      H2618   1.082       .  S
C2607      C2608   1.373       .  A
C2607      H2619   1.079       .  S
C2608      H2620   1.082       .  S
C2609      C2610   1.359       .  A
C2609      H2621   1.083       .  S
C2610      H2622   1.083       .  S
