geometry optimzed in LAMMPS
_audit_creation_date              2020-11-30 
_audit_creation_method            'lammps2cif' 
_symmetry_space_group_name_H-M    'P1' 
_symmetry_Int_Tables_number       1 
_symmetry_cell_setting            triclinic 
loop_ 
_symmetry_equiv_pos_as_xyz 
  x,y,z 
_cell_length_a                    36.97270499 
_cell_length_b                    36.37284051452729 
_cell_length_c                    33.86481467804502 
_cell_angle_alpha                 94.44743562837417 
_cell_angle_beta                  89.05631888608538 
_cell_angle_gamma                 118.85020634465894 
loop_ 
_atom_site_label 
_atom_site_type_symbol 
_atom_site_fract_x 
_atom_site_fract_y 
_atom_site_fract_z 
_atom_site_charge 
C1          C  0.44940786  0.38151663  0.39117954     0.80800
N2          N  0.47493943  0.36730473  0.37554296    -0.77500
C3          C  0.46199931  0.33833936  0.34373837     0.83300
N4          N  0.42364399  0.32397501  0.32769612    -0.77400
C5          C  0.39784245  0.33758656  0.34357673     0.83400
N6          N  0.41089945  0.36648265  0.37528676    -0.79100
C7          C  0.36052795  0.44986337  0.19550507     0.80800
N8          N  0.34783346  0.47711091  0.21128510    -0.77500
C9          C  0.32360819  0.46744673  0.24354717     0.83300
N10         N  0.31238617  0.43078848  0.25986672    -0.77400
C11         C  0.32438930  0.40324400  0.24391869     0.83400
N12         N  0.34861466  0.41277514  0.21163931    -0.79100
C13         C  0.20986412  0.14023676  0.39301330     0.80800
N14         N  0.22256534  0.11299391  0.37723527    -0.77500
C15         C  0.24679399  0.12266235  0.34497549     0.83300
N16         N  0.25801202  0.15931977  0.32865605    -0.77400
C17         C  0.24600227  0.18685969  0.34460229     0.83400
N18         N  0.22177406  0.17732459  0.37687957    -0.79100
O19         O  0.31411809  0.33350207  0.24339005    -0.73800
O20         O  0.27522198  0.23016885  0.29205984    -0.73900
O21         O  0.24070031  0.26131952  0.24401694    -0.73900
O22         O  0.34801453  0.30167061  0.29152664    -0.74000
O23         O  0.32968740  0.32878448  0.34450560    -0.73900
O24         O  0.22237474  0.28843450  0.29699622    -0.73900
O25         O  0.25626981  0.25660089  0.34513179    -0.73800
O26         O  0.29516706  0.35993530  0.29646197    -0.73900
Ni27       Ni  0.29514673  0.28069893  0.26583393     1.25400
Ni28       Ni  0.27524165  0.30940491  0.32268837     1.25400
C29         C  0.31083488  0.36367517  0.26204862     0.88400
C30         C  0.25955406  0.22642837  0.32647301     0.88300
C31         C  0.21387922  0.26819945  0.26276307     0.88300
C32         C  0.35650964  0.32190664  0.32575957     0.88500
C33         C  0.12097997  0.20860501  0.19734180     0.80800
N34         N  0.15948757  0.22363221  0.21323404    -0.77500
C35         C  0.17254749  0.25252543  0.24494626     0.83300
N36         N  0.14674997  0.26614109  0.26082945    -0.77400
C37         C  0.10839579  0.25178350  0.24478777     0.83400
N38         N  0.09545254  0.22282081  0.21298107    -0.79100
C39         C  0.11652267  0.45679536  0.20523719     0.80800
N40         N  0.09217154  0.41915473  0.22013410    -0.77500
C41         C  0.10658438  0.40666866  0.25017304     0.83300
N42         N  0.14547181  0.43211762  0.26524165    -0.77400
C43         C  0.17025681  0.46944652  0.24983967     0.83400
N44         N  0.15558346  0.98168253  0.21985498    -0.79100
C45         C  0.45388505  0.13333627  0.38329711     0.80800
N46         N  0.47823377  0.17097711  0.36839938    -0.77500
C47         C  0.46382090  0.18345802  0.33835618     0.83300
N48         N  0.42493595  0.15800364  0.32328425    -0.77400
C49         C  0.40015339  0.12067431  0.33868673     0.83400
N50         N  0.41482663  0.10844371  0.36867570    -0.79100
O51         O  0.48122870  0.23073596  0.28791521    -0.73800
O52         O  0.04906976  0.33744506  0.24596509    -0.73900
O53         O  0.04970473  0.26263021  0.24305122    -0.73900
O54         O  0.48068833  0.30478523  0.29074846    -0.74000
O55         O  0.02069474  0.32749790  0.34547723    -0.73900
O56         O  0.08971190  0.28534183  0.29777951    -0.73900
O57         O  0.08917266  0.35939151  0.30061418    -0.73800
O58         O  0.02133170  0.25268348  0.34256424    -0.73900
Ni59       Ni  0.01380967  0.28314871  0.26493368     1.25400
Ni60       Ni  0.05659094  0.30697928  0.32359522     1.25400
C61         C  0.49009919  0.22422045  0.32217213     0.88400
C62         C  0.08030318  0.36590715  0.26635707     0.88300
C63         C  0.08116754  0.26718359  0.26263756     0.88300
C64         C  0.48923141  0.32294311  0.32589034     0.88500
O65         O  0.25839847  0.06390957  0.34600803    -0.73800
O66         O  0.29536990  0.49035115  0.29654286    -0.73900
O67         O  0.33191458  0.06352079  0.34259551    -0.73900
O68         O  0.22250527  0.99061729  0.29981145    -0.74000
O69         O  0.23849729  0.02659588  0.24592946    -0.73900
O70         O  0.34790642  0.09949834  0.28871287    -0.73900
O71         O  0.31201203  0.02620506  0.24251663    -0.73800
O72         O  0.27504152  0.09976451  0.29198247    -0.73900
Ni73       Ni  0.27651540  0.02586693  0.32319732     1.24800
Ni74       Ni  0.29389628  0.06424879  0.26532755     1.25400
C75         C  0.26059956  0.09391412  0.32691696     0.88400
C76         C  0.30980929  0.49619959  0.26160744     0.88300
C77         C  0.35795139  0.09331834  0.32260925     0.88300
C78         C  0.21246012  0.99679871  0.26591570     0.88500
O79         O  0.14032798  0.10712021  0.01767192    -0.80300
O80         O  0.48038783  0.01330142  0.11656817    -0.65000
O81         O  0.06637797  0.03856919  0.04246503    -1.11600
C82         C  0.48812181  0.08175003  0.46764966     1.06600
O83         O  0.43007313  0.48298932  0.07084872    -0.78200
O84         O  0.45205773  0.47811003  0.49509937    -0.65800
Ni85       Ni  0.12321927  0.06998855  0.06001090     1.34900
C86         C  0.48162584  0.47953707  0.47459022     0.85300
O87         O  0.04530360  0.00023262  0.11411740    -0.78700
O88         O  0.11342736  0.03522529  0.10325779    -0.89000
C89         C  0.44263543  0.49091298  0.10672619     0.84900
O90         O  0.11832737  0.11202525  0.09341167    -0.67200
O91         O  0.45697212  0.05492313  0.48529514    -0.86500
C92         C  0.08876128  0.11058624  0.11393200     0.85700
C93         C  0.08227790  0.00838238  0.12089124     1.07300
H94         H  0.00787305  0.07799118  0.05870236     0.39100
O95         O  0.00402212  0.05154906  0.04606632    -1.09100
O96         O  0.01772622  0.01107077  0.47605591    -0.65800
Ni97       Ni  0.04615174  0.06401780  0.00781171     1.26300
O98         O  0.05266859  0.07904004  0.11248022    -0.66000
O99         O  0.02509228  0.08987809  0.47440798    -0.78300
C100        C  0.12776000  0.09919270  0.48179603     0.85100
O101        O  0.09000617  0.07680696  0.47195853    -0.65500
Ni102      Ni  0.44717883  0.02013982  0.02852515     1.27400
Ni103      Ni  0.02424556  0.02609624  0.08071752     1.26100
H104        H  0.06253184  0.01212745  0.02982928     0.39700
C105        C  0.46972030  0.11884774  0.41345758    -0.12700
C106        C  0.48030989  0.10357634  0.43818619    -0.14200
C107        C  0.09009448  0.98656092  0.15035618    -0.12700
C108        C  0.10068698  0.47128937  0.17508217    -0.14200
C109        C  0.09710454  0.14624808  0.14125624    -0.12700
C110        C  0.10664027  0.17548735  0.16585671    -0.14200
C111        C  0.15740328  0.11657384  0.45145092    -0.12700
C112        C  0.18203821  0.12868329  0.42537242    -0.14200
C113        C  0.38835248  0.46141376  0.16314477    -0.12700
C114        C  0.41298851  0.47352524  0.13706729    -0.14200
C115        C  0.46374315  0.41463571  0.42266352    -0.12700
C116        C  0.47327767  0.44387488  0.44726408    -0.14200
C117        C  0.44940789  0.38151663  0.89117952     0.80800
N118        N  0.47493944  0.36730472  0.87554292    -0.77500
C119        C  0.46199929  0.33833932  0.84373834     0.83300
N120        N  0.42364401  0.32397507  0.82769606    -0.77400
C121        C  0.39784251  0.33758671  0.84357665     0.83400
N122        N  0.41089951  0.36648275  0.87528671    -0.79100
C123        C  0.36052798  0.44986336  0.69550508     0.80800
N124        N  0.34783339  0.47711084  0.71128504    -0.77500
C125        C  0.32360811  0.46744664  0.74354710     0.83300
N126        N  0.31238616  0.43078843  0.75986669    -0.77400
C127        C  0.32438928  0.40324396  0.74391863     0.83400
N128        N  0.34861467  0.41277512  0.71163928    -0.79100
C129        C  0.20986415  0.14023675  0.89301336     0.80800
N130        N  0.22256539  0.11299391  0.87723534    -0.77500
C131        C  0.24679400  0.12266232  0.84497552     0.83300
N132        N  0.25801201  0.15931975  0.82865606    -0.77400
C133        C  0.24600223  0.18685965  0.84460229     0.83400
N134        N  0.22177399  0.17732453  0.87687955    -0.79100
O135        O  0.31411815  0.33350207  0.74339000    -0.73800
O136        O  0.27522199  0.23016890  0.79205991    -0.73900
O137        O  0.24070032  0.26131950  0.74401701    -0.73900
O138        O  0.34801452  0.30167056  0.79152672    -0.74000
O139        O  0.32968744  0.32878460  0.84450555    -0.73900
O140        O  0.22237471  0.28843452  0.79699621    -0.73900
O141        O  0.25626985  0.25660093  0.84513184    -0.73800
O142        O  0.29516700  0.35993523  0.79646184    -0.73900
Ni143      Ni  0.29514675  0.28069894  0.76583399     1.25400
Ni144      Ni  0.27524165  0.30940492  0.82268833     1.25400
C145        C  0.31083488  0.36367513  0.76204852     0.88400
C146        C  0.25955406  0.22642839  0.82647306     0.88300
C147        C  0.21387923  0.26819946  0.76276307     0.88300
C148        C  0.35650967  0.32190672  0.82575957     0.88500
C149        C  0.12097993  0.20860494  0.69734180     0.80800
N150        N  0.15948753  0.22363210  0.71323405    -0.77500
C151        C  0.17254750  0.25252542  0.74494622     0.83300
N152        N  0.14674999  0.26614111  0.76082937    -0.77400
C153        C  0.10839578  0.25178348  0.74478771     0.83400
N154        N  0.09545254  0.22282082  0.71298101    -0.79100
C155        C  0.11652270  0.45679541  0.70523722     0.80800
N156        N  0.09217160  0.41915478  0.72013413    -0.77500
C157        C  0.10658441  0.40666875  0.75017312     0.83300
N158        N  0.14547185  0.43211770  0.76524169    -0.77400
C159        C  0.17025682  0.46944663  0.74983974     0.83400
N160        N  0.15558338  0.98168256  0.71985512    -0.79100
C161        C  0.45388501  0.13333623  0.88329717     0.80800
N162        N  0.47823376  0.17097709  0.86839945    -0.77500
C163        C  0.46382093  0.18345800  0.83835618     0.83300
N164        N  0.42493601  0.15800362  0.82328422    -0.77400
C165        C  0.40015339  0.12067433  0.83868673     0.83400
N166        N  0.41482660  0.10844371  0.86867571    -0.79100
O167        O  0.48122871  0.23073596  0.78791517    -0.73800
O168        O  0.04906977  0.33744517  0.74596513    -0.73900
O169        O  0.04970474  0.26263022  0.74305112    -0.73900
O170        O  0.48068828  0.30478516  0.79074841    -0.74000
O171        O  0.02069475  0.32749792  0.84547715    -0.73900
O172        O  0.08971183  0.28534172  0.79777947    -0.73900
O173        O  0.08917271  0.35939147  0.80061420    -0.73800
O174        O  0.02133168  0.25268347  0.84256424    -0.73900
Ni175      Ni  0.01380967  0.28314873  0.76493363     1.25400
Ni176      Ni  0.05659093  0.30697924  0.82359521     1.25400
C177        C  0.49009920  0.22422044  0.82217212     0.88400
C178        C  0.08030321  0.36590722  0.76635714     0.88300
C179        C  0.08116752  0.26718356  0.76263749     0.88300
C180        C  0.48923137  0.32294305  0.82589028     0.88500
O181        O  0.25839841  0.06390946  0.84600799    -0.73800
O182        O  0.29536983  0.49035113  0.79654276    -0.73900
O183        O  0.33191458  0.06352075  0.84259542    -0.73900
O184        O  0.22250524  0.99061726  0.79981152    -0.74000
O185        O  0.23849725  0.02659585  0.74592953    -0.73900
O186        O  0.34790642  0.09949835  0.78871282    -0.73900
O187        O  0.31201195  0.02620492  0.74251653    -0.73800
O188        O  0.27504151  0.09976445  0.79198247    -0.73900
Ni189      Ni  0.27651538  0.02586685  0.82319727     1.24800
Ni190      Ni  0.29389626  0.06424873  0.76532752     1.25400
C191        C  0.26059954  0.09391405  0.82691695     0.88400
C192        C  0.30980921  0.49619952  0.76160733     0.88300
C193        C  0.35795139  0.09331835  0.82260920     0.88300
C194        C  0.21246007  0.99679871  0.76591579     0.88500
O195        O  0.14032797  0.10712018  0.51767189    -0.80300
O196        O  0.48038775  0.01330126  0.61656824    -0.65000
O197        O  0.06637795  0.03856926  0.54246512    -1.11600
C198        C  0.48812174  0.08174991  0.96764973     1.06600
O199        O  0.43007311  0.48298921  0.57084869    -0.78200
O200        O  0.45205768  0.47810998  0.99509947    -0.65800
Ni201      Ni  0.12321925  0.06998851  0.56001090     1.34900
C202        C  0.48162579  0.47953700  0.97459033     0.85300
O203        O  0.04530355  0.00023254  0.61411749    -0.78700
O204        O  0.11342728  0.03522512  0.60325771    -0.89000
C205        C  0.44263537  0.49091283  0.60672618     0.84900
O206        O  0.11832735  0.11202519  0.59341168    -0.67200
O207        O  0.45697203  0.05492293  0.98529513    -0.86500
C208        C  0.08876123  0.11058624  0.61393192     0.85700
C209        C  0.08227786  0.00838225  0.62089122     1.07300
H210        H  0.00787309  0.07799124  0.55870239     0.39100
O211        O  0.00402211  0.05154906  0.54606634    -1.09100
O212        O  0.01772624  0.01107079  0.97605599    -0.65800
Ni213      Ni  0.04615172  0.06401784  0.50781167     1.26300
O214        O  0.05266853  0.07904003  0.61248019    -0.66000
O215        O  0.02509223  0.08987806  0.97440811    -0.78300
C216        C  0.12775999  0.09919274  0.98179608     0.85100
O217        O  0.09000617  0.07680694  0.97195859    -0.65500
Ni218      Ni  0.44717887  0.02013987  0.52852512     1.27400
Ni219      Ni  0.02424552  0.02609622  0.58071761     1.26100
H220        H  0.06253204  0.01212877  0.52982999     0.39700
C221        C  0.46972021  0.11884763  0.91345768    -0.12700
C222        C  0.48030982  0.10357623  0.93818629    -0.14200
C223        C  0.09009452  0.98656086  0.65035614    -0.12700
C224        C  0.10068698  0.47128928  0.67508208    -0.14200
C225        C  0.09710446  0.14624816  0.64125605    -0.12700
C226        C  0.10664023  0.17548740  0.66585656    -0.14200
C227        C  0.15740329  0.11657392  0.95145101    -0.12700
C228        C  0.18203824  0.12868331  0.92537251    -0.14200
C229        C  0.38835240  0.46141367  0.66314470    -0.12700
C230        C  0.41298841  0.47352505  0.63706721    -0.14200
C231        C  0.46374318  0.41463574  0.92266348    -0.12700
C232        C  0.47327763  0.44387482  0.94726415    -0.14200
C233        C  0.44940791  0.88151656  0.39117956     0.80800
N234        N  0.47493951  0.86730472  0.37554297    -0.77500
C235        C  0.46199938  0.83833936  0.34373836     0.83300
N236        N  0.42364406  0.82397503  0.32769610    -0.77400
C237        C  0.39784252  0.83758659  0.34357671     0.83400
N238        N  0.41089952  0.86648264  0.37528675    -0.79100
C239        C  0.36052799  0.94986340  0.19550504     0.80800
N240        N  0.34783348  0.97711092  0.21128506    -0.77500
C241        C  0.32360832  0.96744679  0.24354721     0.83300
N242        N  0.31238634  0.93078856  0.25986677    -0.77400
C243        C  0.32438944  0.90324406  0.24391872     0.83400
N244        N  0.34861480  0.91277520  0.21163933    -0.79100
C245        C  0.20986419  0.64023678  0.39301336     0.80800
N246        N  0.22256550  0.61299398  0.37723539    -0.77500
C247        C  0.24679401  0.62266237  0.34497550     0.83300
N248        N  0.25801194  0.65931976  0.32865601    -0.77400
C249        C  0.24600222  0.68685969  0.34460229     0.83400
N250        N  0.22177403  0.67732458  0.37687959    -0.79100
O251        O  0.31411822  0.83350210  0.24339008    -0.73800
O252        O  0.27522209  0.73016890  0.29205991    -0.73900
O253        O  0.24070035  0.76131944  0.24401698    -0.73900
O254        O  0.34801454  0.80167055  0.29152670    -0.74000
O255        O  0.32968741  0.82878454  0.34450557    -0.73900
O256        O  0.22237473  0.78843453  0.29699616    -0.73900
O257        O  0.25626974  0.75660091  0.34513176    -0.73800
O258        O  0.29516695  0.85993525  0.29646188    -0.73900
Ni259      Ni  0.29514681  0.78069892  0.26583396     1.25400
Ni260      Ni  0.27524160  0.80940492  0.32268834     1.25400
C261        C  0.31083492  0.86367516  0.26204860     0.88400
C262        C  0.25955405  0.72642839  0.32647302     0.88300
C263        C  0.21387925  0.76819941  0.26276305     0.88300
C264        C  0.35650966  0.82190665  0.32575958     0.88500
C265        C  0.12097995  0.70860502  0.19734182     0.80800
N266        N  0.15948752  0.72363210  0.21323408    -0.77500
C267        C  0.17254752  0.75252540  0.24494624     0.83300
N268        N  0.14675005  0.76614112  0.26082945    -0.77400
C269        C  0.10839584  0.75178352  0.24478782     0.83400
N270        N  0.09545257  0.72282087  0.21298111    -0.79100
C271        C  0.11652263  0.95679541  0.20523724     0.80800
N272        N  0.09217155  0.91915477  0.22013416    -0.77500
C273        C  0.10658445  0.90666869  0.25017303     0.83300
N274        N  0.14547190  0.93211766  0.26524160    -0.77400
C275        C  0.17025683  0.96944661  0.24983966     0.83400
N276        N  0.15558350  0.48168246  0.21985495    -0.79100
C277        C  0.45388502  0.63333628  0.38329712     0.80800
N278        N  0.47823378  0.67097711  0.36839938    -0.77500
C279        C  0.46382095  0.68345801  0.33835614     0.83300
N280        N  0.42493600  0.65800365  0.32328421    -0.77400
C281        C  0.40015339  0.62067435  0.33868670     0.83400
N282        N  0.41482662  0.60844372  0.36867566    -0.79100
O283        O  0.48122871  0.73073601  0.28791521    -0.73800
O284        O  0.04906981  0.83744514  0.24596514    -0.73900
O285        O  0.04970483  0.76263029  0.24305125    -0.73900
O286        O  0.48068840  0.80478525  0.29074845    -0.74000
O287        O  0.02069474  0.82749791  0.34547723    -0.73900
O288        O  0.08971199  0.78534191  0.29777954    -0.73900
O289        O  0.08917272  0.85939158  0.30061422    -0.73800
O290        O  0.02133172  0.75268354  0.34256428    -0.73900
Ni291      Ni  0.01380975  0.78314876  0.26493370     1.25400
Ni292      Ni  0.05659100  0.80697934  0.32359525     1.25400
C293        C  0.49009919  0.72422049  0.32217213     0.88400
C294        C  0.08030325  0.86590722  0.26635711     0.88300
C295        C  0.08116762  0.76718365  0.26263759     0.88300
C296        C  0.48923144  0.82294309  0.32589034     0.88500
O297        O  0.25839845  0.56390957  0.34600801    -0.73800
O298        O  0.29536983  0.99035112  0.29654283    -0.73900
O299        O  0.33191460  0.56352088  0.34259553    -0.73900
O300        O  0.22250534  0.49061722  0.29981143    -0.74000
O301        O  0.23849722  0.52659586  0.24592949    -0.73900
O302        O  0.34790636  0.59949833  0.28871284    -0.73900
O303        O  0.31201190  0.52620498  0.24251661    -0.73800
O304        O  0.27504155  0.59976454  0.29198248    -0.73900
Ni305      Ni  0.27651544  0.52586695  0.32319733     1.24800
Ni306      Ni  0.29389621  0.56424875  0.26532757     1.25400
C307        C  0.26059957  0.59391414  0.32691696     0.88400
C308        C  0.30980937  0.99619964  0.26160746     0.88300
C309        C  0.35795137  0.59331841  0.32260925     0.88300
C310        C  0.21246011  0.49679863  0.26591571     0.88500
O311        O  0.14032801  0.60712011  0.01767191    -0.80300
O312        O  0.48038779  0.51330146  0.11656820    -0.65000
O313        O  0.06637798  0.53856923  0.04246504    -1.11600
C314        C  0.48812168  0.58174999  0.46764967     1.06600
O315        O  0.43007310  0.98298938  0.07084875    -0.78200
O316        O  0.45205775  0.97810998  0.49509945    -0.65800
Ni317      Ni  0.12321925  0.56998846  0.06001090     1.34900
C318        C  0.48162581  0.97953696  0.47459025     0.85300
O319        O  0.04530363  0.50023263  0.11411740    -0.78700
O320        O  0.11342736  0.53522511  0.10325773    -0.89000
C321        C  0.44263547  0.99091302  0.10672619     0.84900
O322        O  0.11832733  0.61202519  0.09341168    -0.67200
O323        O  0.45697197  0.55492301  0.48529511    -0.86500
C324        C  0.08876127  0.61058621  0.11393203     0.85700
C325        C  0.08227791  0.50838231  0.12089125     1.07300
H326        H  0.00787305  0.57799152  0.05870253     0.39100
O327        O  0.00402211  0.55154911  0.04606634    -1.09100
O328        O  0.01772637  0.51107088  0.47605592    -0.65800
Ni329      Ni  0.04615176  0.56401786  0.00781172     1.26300
O330        O  0.05266857  0.57904004  0.11248024    -0.66000
O331        O  0.02509231  0.58987815  0.47440801    -0.78300
C332        C  0.12776002  0.59919273  0.48179603     0.85100
O333        O  0.09000619  0.57680686  0.47195856    -0.65500
Ni334      Ni  0.44717877  0.52013983  0.02852515     1.27400
Ni335      Ni  0.02424558  0.52609629  0.08071752     1.26100
H336        H  0.06253198  0.51212799  0.02982949     0.39700
C337        C  0.46972024  0.61884776  0.41345762    -0.12700
C338        C  0.48030978  0.60357634  0.43818624    -0.14200
C339        C  0.09009446  0.48656094  0.15035627    -0.12700
C340        C  0.10068692  0.97128936  0.17508216    -0.14200
C341        C  0.09710450  0.64624809  0.14125624    -0.12700
C342        C  0.10664019  0.67548738  0.16585668    -0.14200
C343        C  0.15740327  0.61657391  0.45145091    -0.12700
C344        C  0.18203827  0.62868332  0.42537248    -0.14200
C345        C  0.38835259  0.96141382  0.16314480    -0.12700
C346        C  0.41298862  0.97352528  0.13706732    -0.14200
C347        C  0.46374313  0.91463563  0.42266351    -0.12700
C348        C  0.47327756  0.94387476  0.44726410    -0.14200
C349        C  0.44940793  0.88151659  0.89117954     0.80800
N350        N  0.47493948  0.86730463  0.87554299    -0.77500
C351        C  0.46199935  0.83833932  0.84373834     0.83300
N352        N  0.42364409  0.82397512  0.82769601    -0.77400
C353        C  0.39784258  0.83758676  0.84357660     0.83400
N354        N  0.41089959  0.86648277  0.87528667    -0.79100
C355        C  0.36052798  0.94986333  0.69550501     0.80800
N356        N  0.34783339  0.97711080  0.71128498    -0.77500
C357        C  0.32360824  0.96744667  0.74354713     0.83300
N358        N  0.31238633  0.93078849  0.75986673    -0.77400
C359        C  0.32438942  0.90324401  0.74391866     0.83400
N360        N  0.34861479  0.91277515  0.71163928    -0.79100
C361        C  0.20986421  0.64023678  0.89301340     0.80800
N362        N  0.22256546  0.61299395  0.87723537    -0.77500
C363        C  0.24679399  0.62266235  0.84497550     0.83300
N364        N  0.25801192  0.65931973  0.82865600    -0.77400
C365        C  0.24600215  0.68685963  0.84460225     0.83400
N366        N  0.22177402  0.67732455  0.87687959    -0.79100
O367        O  0.31411827  0.83350213  0.74339003    -0.73800
O368        O  0.27522210  0.73016894  0.79205994    -0.73900
O369        O  0.24070035  0.76131952  0.74401705    -0.73900
O370        O  0.34801460  0.80167063  0.79152667    -0.74000
O371        O  0.32968739  0.82878450  0.84450554    -0.73900
O372        O  0.22237466  0.78843453  0.79699620    -0.73900
O373        O  0.25626973  0.75660089  0.84513178    -0.73800
O374        O  0.29516695  0.85993524  0.79646180    -0.73900
Ni375      Ni  0.29514682  0.78069898  0.76583399     1.25400
Ni376      Ni  0.27524159  0.80940491  0.82268832     1.25400
C377        C  0.31083493  0.86367517  0.76204853     0.88400
C378        C  0.25955401  0.72642837  0.82647303     0.88300
C379        C  0.21387921  0.76819944  0.76276308     0.88300
C380        C  0.35650970  0.82190674  0.82575953     0.88500
C381        C  0.12097993  0.70860493  0.69734178     0.80800
N382        N  0.15948754  0.72363212  0.71323400    -0.77500
C383        C  0.17254750  0.75252541  0.74494619     0.83300
N384        N  0.14675000  0.76614113  0.76082932    -0.77400
C385        C  0.10839577  0.75178344  0.74478771     0.83400
N386        N  0.09545250  0.72282071  0.71298106    -0.79100
C387        C  0.11652260  0.95679537  0.70523728     0.80800
N388        N  0.09217155  0.91915468  0.72013413    -0.77500
C389        C  0.10658444  0.90666860  0.75017302     0.83300
N390        N  0.14547189  0.93211757  0.76524159    -0.77400
C391        C  0.17025677  0.96944661  0.74983976     0.83400
N392        N  0.15558349  0.48168258  0.71985504    -0.79100
C393        C  0.45388498  0.63333622  0.88329718     0.80800
N394        N  0.47823371  0.67097711  0.86839950    -0.77500
C395        C  0.46382091  0.68345794  0.83835616     0.83300
N396        N  0.42493600  0.65800354  0.82328418    -0.77400
C397        C  0.40015338  0.62067425  0.83868668     0.83400
N398        N  0.41482661  0.60844362  0.86867564    -0.79100
O399        O  0.48122865  0.73073591  0.78791518    -0.73800
O400        O  0.04906970  0.83744508  0.74596515    -0.73900
O401        O  0.04970467  0.76263014  0.74305117    -0.73900
O402        O  0.48068833  0.80478514  0.79074840    -0.74000
O403        O  0.02069476  0.82749794  0.84547712    -0.73900
O404        O  0.08971187  0.78534172  0.79777946    -0.73900
O405        O  0.08917272  0.85939144  0.80061419    -0.73800
O406        O  0.02133166  0.75268343  0.84256422    -0.73900
Ni407      Ni  0.01380958  0.78314866  0.76493364     1.25400
Ni408      Ni  0.05659096  0.80697923  0.82359521     1.25400
C409        C  0.49009914  0.72422040  0.82217212     0.88400
C410        C  0.08030321  0.86590712  0.76635710     0.88300
C411        C  0.08116750  0.76718351  0.76263749     0.88300
C412        C  0.48923144  0.82294307  0.82589026     0.88500
O413        O  0.25839831  0.56390946  0.84600796    -0.73800
O414        O  0.29536974  0.99035098  0.79654272    -0.73900
O415        O  0.33191449  0.56352081  0.84259549    -0.73900
O416        O  0.22250527  0.49061722  0.79981148    -0.74000
O417        O  0.23849722  0.52659592  0.74592957    -0.73900
O418        O  0.34790637  0.59949829  0.78871280    -0.73900
O419        O  0.31201183  0.52620491  0.74251648    -0.73800
O420        O  0.27504159  0.59976455  0.79198250    -0.73900
Ni421      Ni  0.27651536  0.52586690  0.82319728     1.24800
Ni422      Ni  0.29389622  0.56424876  0.76532752     1.25400
C423        C  0.26059954  0.59391410  0.82691694     0.88400
C424        C  0.30980927  0.99619949  0.76160735     0.88300
C425        C  0.35795133  0.59331833  0.82260921     0.88300
C426        C  0.21246009  0.49679869  0.76591578     0.88500
O427        O  0.14032803  0.60712022  0.51767187    -0.80300
O428        O  0.48038771  0.51330131  0.61656828    -0.65000
O429        O  0.06637800  0.53856930  0.54246511    -1.11600
C430        C  0.48812166  0.58174995  0.96764974     1.06600
O431        O  0.43007310  0.98298936  0.57084871    -0.78200
O432        O  0.45205769  0.97810994  0.99509953    -0.65800
Ni433      Ni  0.12321929  0.56998856  0.56001091     1.34900
C434        C  0.48162576  0.97953699  0.97459029     0.85300
O435        O  0.04530364  0.50023261  0.61411746    -0.78700
O436        O  0.11342736  0.53522517  0.60325774    -0.89000
C437        C  0.44263541  0.99091288  0.60672618     0.84900
O438        O  0.11832734  0.61202522  0.59341165    -0.67200
O439        O  0.45697195  0.55492299  0.98529515    -0.86500
C440        C  0.08876125  0.61058624  0.61393195     0.85700
C441        C  0.08227792  0.50838229  0.62089123     1.07300
H442        H  0.00787315  0.57799239  0.55870295     0.39100
O443        O  0.00402208  0.55154914  0.54606639    -1.09100
O444        O  0.01772632  0.51107082  0.97605600    -0.65800
Ni445      Ni  0.04615176  0.56401790  0.50781171     1.26300
O446        O  0.05266855  0.57904006  0.61248020    -0.66000
O447        O  0.02509229  0.58987813  0.97440811    -0.78300
C448        C  0.12776001  0.59919266  0.98179608     0.85100
O449        O  0.09000617  0.57680694  0.97195861    -0.65500
Ni450      Ni  0.44717876  0.52013979  0.52852512     1.27400
Ni451      Ni  0.02424555  0.52609630  0.58071759     1.26100
H452        H  0.06253213  0.51212852  0.52982984     0.39700
C453        C  0.46972017  0.61884769  0.91345771    -0.12700
C454        C  0.48030976  0.60357629  0.93818631    -0.14200
C455        C  0.09009449  0.48656084  0.65035615    -0.12700
C456        C  0.10068693  0.97128927  0.67508212    -0.14200
C457        C  0.09710451  0.64624811  0.64125612    -0.12700
C458        C  0.10664023  0.67548738  0.66585657    -0.14200
C459        C  0.15740328  0.61657380  0.95145098    -0.12700
C460        C  0.18203829  0.62868329  0.92537254    -0.14200
C461        C  0.38835250  0.96141368  0.66314472    -0.12700
C462        C  0.41298851  0.97352508  0.63706725    -0.14200
C463        C  0.46374315  0.91463565  0.92266353    -0.12700
C464        C  0.47327754  0.94387479  0.94726412    -0.14200
C465        C  0.94940787  0.38151663  0.39117954     0.80800
N466        N  0.97493945  0.36730474  0.37554298    -0.77500
C467        C  0.96199933  0.33833937  0.34373838     0.83300
N468        N  0.92364402  0.32397501  0.32769613    -0.77400
C469        C  0.89784247  0.33758656  0.34357674     0.83400
N470        N  0.91089946  0.36648264  0.37528676    -0.79100
C471        C  0.86052795  0.44986334  0.19550502     0.80800
N472        N  0.84783349  0.47711089  0.21128507    -0.77500
C473        C  0.82360832  0.46744676  0.24354722     0.83300
N474        N  0.81238635  0.43078853  0.25986678    -0.77400
C475        C  0.82438939  0.40324401  0.24391870     0.83400
N476        N  0.84861468  0.41277511  0.21163926    -0.79100
C477        C  0.70986420  0.14023676  0.39301332     0.80800
N478        N  0.72256543  0.11299392  0.37723529    -0.77500
C479        C  0.74679400  0.12266235  0.34497545     0.83300
N480        N  0.75801197  0.15931974  0.32865599    -0.77400
C481        C  0.74600227  0.18685968  0.34460228     0.83400
N482        N  0.72177412  0.17732460  0.37687961    -0.79100
O483        O  0.81411823  0.33350209  0.24339009    -0.73800
O484        O  0.77522211  0.23016888  0.29205988    -0.73900
O485        O  0.74070037  0.26131954  0.24401695    -0.73900
O486        O  0.84801459  0.30167061  0.29152666    -0.74000
O487        O  0.82968739  0.32878447  0.34450559    -0.73900
O488        O  0.72237471  0.28843450  0.29699621    -0.73900
O489        O  0.75626975  0.25660087  0.34513174    -0.73800
O490        O  0.79516701  0.35993527  0.29646191    -0.73900
Ni491      Ni  0.79514682  0.28069894  0.26583394     1.25400
Ni492      Ni  0.77524162  0.30940490  0.32268836     1.25400
C493        C  0.81083493  0.36367516  0.26204861     0.88400
C494        C  0.75955407  0.22642837  0.32647300     0.88300
C495        C  0.71387925  0.26819945  0.26276306     0.88300
C496        C  0.85650966  0.32190663  0.32575958     0.88500
C497        C  0.62097999  0.20860502  0.19734181     0.80800
N498        N  0.65948759  0.22363220  0.21323403    -0.77500
C499        C  0.67254753  0.25252542  0.24494626     0.83300
N500        N  0.64675001  0.26614107  0.26082948    -0.77400
C501        C  0.60839582  0.25178347  0.24478783     0.83400
N502        N  0.59545257  0.22282082  0.21298112    -0.79100
C503        C  0.61652263  0.45679536  0.20523722     0.80800
N504        N  0.59217153  0.41915471  0.22013411    -0.77500
C505        C  0.60658441  0.40666863  0.25017300     0.83300
N506        N  0.64547182  0.43211763  0.26524164    -0.77400
C507        C  0.67025679  0.46944656  0.24983968     0.83400
N508        N  0.65558354  0.98168251  0.21985493    -0.79100
C509        C  0.95388506  0.13333627  0.38329713     0.80800
N510        N  0.97823379  0.17097713  0.36839942    -0.77500
C511        C  0.96382096  0.18345799  0.33835615     0.83300
N512        N  0.92493602  0.15800360  0.32328421    -0.77400
C513        C  0.90015341  0.12067430  0.33868671     0.83400
N514        N  0.91482666  0.10844369  0.36867566    -0.79100
O515        O  0.98122869  0.23073597  0.28791522    -0.73800
O516        O  0.54906975  0.33744507  0.24596510    -0.73900
O517        O  0.54970476  0.26263022  0.24305126    -0.73900
O518        O  0.98068833  0.30478523  0.29074846    -0.74000
O519        O  0.52069476  0.32749790  0.34547723    -0.73900
O520        O  0.58971198  0.28534185  0.29777953    -0.73900
O521        O  0.58917271  0.35939150  0.30061416    -0.73800
O522        O  0.52133172  0.25268347  0.34256424    -0.73900
Ni523      Ni  0.51380968  0.28314871  0.26493369     1.25400
Ni524      Ni  0.55659100  0.30697929  0.32359523     1.25400
C525        C  0.99009920  0.22422045  0.32217213     0.88400
C526        C  0.58030322  0.36590713  0.26635705     0.88300
C527        C  0.58116758  0.26718359  0.26263759     0.88300
C528        C  0.98923141  0.32294311  0.32589033     0.88500
O529        O  0.75839840  0.06390955  0.34600802    -0.73800
O530        O  0.79536987  0.49035112  0.29654285    -0.73900
O531        O  0.83191454  0.06352082  0.34259552    -0.73900
O532        O  0.72250525  0.99061728  0.29981145    -0.74000
O533        O  0.73849729  0.02659589  0.24592947    -0.73900
O534        O  0.84790640  0.09949835  0.28871287    -0.73900
O535        O  0.81201196  0.02620505  0.24251663    -0.73800
O536        O  0.77504159  0.09976455  0.29198249    -0.73900
Ni537      Ni  0.77651535  0.02586693  0.32319733     1.24800
Ni538      Ni  0.79389627  0.06424880  0.26532756     1.25400
C539        C  0.76059957  0.09391413  0.32691694     0.88400
C540        C  0.80980939  0.49619962  0.26160747     0.88300
C541        C  0.85795136  0.09331836  0.32260926     0.88300
C542        C  0.71246013  0.99679868  0.26591568     0.88500
O543        O  0.64032809  0.10712020  0.01767190    -0.80300
O544        O  0.98038779  0.01330147  0.11656821    -0.65000
O545        O  0.56637802  0.03856916  0.04246499    -1.11600
C546        C  0.98812178  0.08175003  0.46764966     1.06600
O547        O  0.93007307  0.48298935  0.07084873    -0.78200
O548        O  0.95205781  0.47811004  0.49509942    -0.65800
Ni549      Ni  0.62321928  0.06998857  0.06001092     1.34900
C550        C  0.98162588  0.47953708  0.47459022     0.85300
O551        O  0.54530358  0.00023260  0.11411740    -0.78700
O552        O  0.61342731  0.03522530  0.10325781    -0.89000
C553        C  0.94263544  0.49091299  0.10672618     0.84900
O554        O  0.61832731  0.11202527  0.09341166    -0.67200
O555        O  0.95697208  0.05492315  0.48529516    -0.86500
C556        C  0.58876123  0.11058624  0.11393200     0.85700
C557        C  0.58227787  0.00838237  0.12089126     1.07300
H558        H  0.50787307  0.07799148  0.05870252     0.39100
O559        O  0.50402214  0.05154907  0.04606633    -1.09100
O560        O  0.51772631  0.01107076  0.47605592    -0.65800
Ni561      Ni  0.54615177  0.06401780  0.00781171     1.26300
O562        O  0.55266856  0.07904002  0.11248022    -0.66000
O563        O  0.52509231  0.08987809  0.47440799    -0.78300
C564        C  0.62776007  0.09919274  0.48179603     0.85100
O565        O  0.59000623  0.07680696  0.47195856    -0.65500
Ni566      Ni  0.94717880  0.02013981  0.02852516     1.27400
Ni567      Ni  0.52424559  0.02609623  0.08071750     1.26100
H568        H  0.56253193  0.01212715  0.02982908     0.39700
C569        C  0.96972027  0.11884775  0.41345761    -0.12700
C570        C  0.98030986  0.10357634  0.43818621    -0.14200
C571        C  0.59009444  0.98656092  0.15035620    -0.12700
C572        C  0.60068694  0.47128936  0.17508218    -0.14200
C573        C  0.59710447  0.14624809  0.14125624    -0.12700
C574        C  0.60664022  0.17548736  0.16585671    -0.14200
C575        C  0.65740332  0.11657388  0.45145091    -0.12700
C576        C  0.68203830  0.12868329  0.42537245    -0.14200
C577        C  0.88835258  0.46141375  0.16314480    -0.12700
C578        C  0.91298860  0.47352520  0.13706732    -0.14200
C579        C  0.96374311  0.41463570  0.42266351    -0.12700
C580        C  0.97327764  0.44387489  0.44726407    -0.14200
C581        C  0.94940789  0.38151663  0.89117953     0.80800
N582        N  0.97493946  0.36730474  0.87554294    -0.77500
C583        C  0.96199931  0.33833934  0.84373835     0.83300
N584        N  0.92364403  0.32397508  0.82769607    -0.77400
C585        C  0.89784253  0.33758671  0.84357665     0.83400
N586        N  0.91089952  0.36648274  0.87528670    -0.79100
C587        C  0.86052798  0.44986333  0.69550503     0.80800
N588        N  0.84783341  0.47711082  0.71128501    -0.77500
C589        C  0.82360824  0.46744667  0.74354714     0.83300
N590        N  0.81238633  0.43078848  0.75986676    -0.77400
C591        C  0.82438937  0.40324397  0.74391864     0.83400
N592        N  0.84861469  0.41277509  0.71163923    -0.79100
C593        C  0.70986421  0.14023675  0.89301340     0.80800
N594        N  0.72256545  0.11299391  0.87723537    -0.77500
C595        C  0.74679402  0.12266233  0.84497553     0.83300
N596        N  0.75801203  0.15931977  0.82865610    -0.77400
C597        C  0.74600224  0.18685966  0.84460232     0.83400
N598        N  0.72177403  0.17732453  0.87687962    -0.79100
O599        O  0.81411829  0.33350209  0.74339003    -0.73800
O600        O  0.77522211  0.23016892  0.79205996    -0.73900
O601        O  0.74070038  0.26131952  0.74401703    -0.73900
O602        O  0.84801458  0.30167056  0.79152673    -0.74000
O603        O  0.82968743  0.32878459  0.84450554    -0.73900
O604        O  0.72237469  0.28843451  0.79699620    -0.73900
O605        O  0.75626978  0.25660091  0.84513180    -0.73800
O606        O  0.79516695  0.35993520  0.79646179    -0.73900
Ni607      Ni  0.79514684  0.28069895  0.76583400     1.25400
Ni608      Ni  0.77524162  0.30940491  0.82268831     1.25400
C609        C  0.81083493  0.36367512  0.76204852     0.88400
C610        C  0.75955407  0.22642838  0.82647307     0.88300
C611        C  0.71387925  0.26819946  0.76276307     0.88300
C612        C  0.85650969  0.32190671  0.82575957     0.88500
C613        C  0.62097996  0.20860493  0.69734179     0.80800
N614        N  0.65948755  0.22363209  0.71323403    -0.77500
C615        C  0.67254753  0.25252541  0.74494620     0.83300
N616        N  0.64675003  0.26614111  0.76082936    -0.77400
C617        C  0.60839583  0.25178349  0.74478770     0.83400
N618        N  0.59545258  0.22282082  0.71298101    -0.79100
C619        C  0.61652264  0.45679541  0.70523724     0.80800
N620        N  0.59217158  0.41915476  0.72013413    -0.77500
C621        C  0.60658444  0.40666873  0.75017308     0.83300
N622        N  0.64547186  0.43211771  0.76524168    -0.77400
C623        C  0.67025680  0.46944667  0.74983976     0.83400
N624        N  0.65558346  0.98168253  0.71985507    -0.79100
C625        C  0.95388502  0.13333624  0.88329719     0.80800
N626        N  0.97823378  0.17097712  0.86839950    -0.77500
C627        C  0.96382099  0.18345797  0.83835615     0.83300
N628        N  0.92493608  0.15800359  0.82328417    -0.77400
C629        C  0.90015342  0.12067433  0.83868670     0.83400
N630        N  0.91482664  0.10844369  0.86867567    -0.79100
O631        O  0.98122870  0.23073597  0.78791519    -0.73800
O632        O  0.54906976  0.33744517  0.74596514    -0.73900
O633        O  0.54970476  0.26263023  0.74305115    -0.73900
O634        O  0.98068828  0.30478516  0.79074840    -0.74000
O635        O  0.52069477  0.32749791  0.84547715    -0.73900
O636        O  0.58971191  0.28534173  0.79777947    -0.73900
O637        O  0.58917276  0.35939146  0.80061418    -0.73800
O638        O  0.52133170  0.25268346  0.84256424    -0.73900
Ni639      Ni  0.51380968  0.28314873  0.76493363     1.25400
Ni640      Ni  0.55659099  0.30697924  0.82359521     1.25400
C641        C  0.99009921  0.22422044  0.82217211     0.88400
C642        C  0.58030325  0.36590720  0.76635711     0.88300
C643        C  0.58116757  0.26718357  0.76263748     0.88300
C644        C  0.98923137  0.32294306  0.82589028     0.88500
O645        O  0.75839838  0.06390950  0.84600799    -0.73800
O646        O  0.79536987  0.49035110  0.79654276    -0.73900
O647        O  0.83191457  0.06352083  0.84259545    -0.73900
O648        O  0.72250526  0.99061733  0.79981154    -0.74000
O649        O  0.73849725  0.02659587  0.74592954    -0.73900
O650        O  0.84790641  0.09949837  0.78871281    -0.73900
O651        O  0.81201189  0.02620492  0.74251652    -0.73800
O652        O  0.77504157  0.09976452  0.79198249    -0.73900
Ni653      Ni  0.77651538  0.02586695  0.82319727     1.24800
Ni654      Ni  0.79389625  0.06424876  0.76532752     1.25400
C655        C  0.76059955  0.09391409  0.82691695     0.88400
C656        C  0.80980932  0.49619955  0.76160735     0.88300
C657        C  0.85795139  0.09331839  0.82260921     0.88300
C658        C  0.71246011  0.99679869  0.76591578     0.88500
O659        O  0.64032808  0.10712017  0.51767187    -0.80300
O660        O  0.98038771  0.01330131  0.61656829    -0.65000
O661        O  0.56637801  0.03856925  0.54246510    -1.11600
C662        C  0.98812171  0.08174991  0.96764974     1.06600
O663        O  0.93007305  0.48298924  0.57084871    -0.78200
O664        O  0.95205775  0.47810999  0.99509953    -0.65800
Ni665      Ni  0.62321926  0.06998851  0.56001091     1.34900
C666        C  0.98162583  0.47953701  0.97459033     0.85300
O667        O  0.54530353  0.00023253  0.61411749    -0.78700
O668        O  0.61342723  0.03522513  0.60325773    -0.89000
C669        C  0.94263538  0.49091283  0.60672618     0.84900
O670        O  0.61832731  0.11202518  0.59341164    -0.67200
O671        O  0.95697199  0.05492295  0.98529515    -0.86500
C672        C  0.58876122  0.11058624  0.61393192     0.85700
C673        C  0.58227782  0.00838224  0.62089123     1.07300
H674        H  0.50787312  0.07799154  0.55870256     0.39100
O675        O  0.50402214  0.05154906  0.54606635    -1.09100
O676        O  0.51772625  0.01107082  0.97605597    -0.65800
Ni677      Ni  0.54615177  0.06401784  0.50781168     1.26300
O678        O  0.55266853  0.07904004  0.61248021    -0.66000
O679        O  0.52509227  0.08987808  0.97440813    -0.78300
C680        C  0.62776005  0.09919278  0.98179608     0.85100
O681        O  0.59000622  0.07680694  0.97195861    -0.65500
Ni682      Ni  0.94717883  0.02013987  0.52852513     1.27400
Ni683      Ni  0.52424556  0.02609622  0.58071759     1.26100
H684        H  0.56253214  0.01212847  0.52982983     0.39700
C685        C  0.96972019  0.11884764  0.91345771    -0.12700
C686        C  0.98030979  0.10357623  0.93818631    -0.14200
C687        C  0.59009447  0.98656085  0.65035616    -0.12700
C688        C  0.60068691  0.47128927  0.67508209    -0.14200
C689        C  0.59710451  0.14624816  0.64125607    -0.12700
C690        C  0.60664024  0.17548740  0.66585657    -0.14200
C691        C  0.65740333  0.11657396  0.95145100    -0.12700
C692        C  0.68203832  0.12868330  0.92537255    -0.14200
C693        C  0.88835250  0.46141366  0.66314474    -0.12700
C694        C  0.91298849  0.47352502  0.63706725    -0.14200
C695        C  0.96374314  0.41463573  0.92266347    -0.12700
C696        C  0.97327760  0.44387482  0.94726414    -0.14200
C697        C  0.94940784  0.88151656  0.39117956     0.80800
N698        N  0.97493944  0.86730471  0.37554296    -0.77500
C699        C  0.96199931  0.83833936  0.34373835     0.83300
N700        N  0.92364400  0.82397503  0.32769610    -0.77400
C701        C  0.89784246  0.83758660  0.34357670     0.83400
N702        N  0.91089946  0.86648264  0.37528675    -0.79100
C703        C  0.86052793  0.94986340  0.19550503     0.80800
N704        N  0.84783341  0.97711092  0.21128506    -0.77500
C705        C  0.82360824  0.96744678  0.24354721     0.83300
N706        N  0.81238629  0.93078855  0.25986677    -0.77400
C707        C  0.82438941  0.90324407  0.24391873     0.83400
N708        N  0.84861474  0.91277521  0.21163932    -0.79100
C709        C  0.70986413  0.64023678  0.39301333     0.80800
N710        N  0.72256544  0.61299398  0.37723538    -0.77500
C711        C  0.74679394  0.62266235  0.34497549     0.83300
N712        N  0.75801193  0.65931975  0.32865602    -0.77400
C713        C  0.74600229  0.68685972  0.34460232     0.83400
N714        N  0.72177404  0.67732460  0.37687958    -0.79100
O715        O  0.81411820  0.83350210  0.24339007    -0.73800
O716        O  0.77522207  0.73016890  0.29205990    -0.73900
O717        O  0.74070029  0.76131944  0.24401698    -0.73900
O718        O  0.84801449  0.80167055  0.29152670    -0.74000
O719        O  0.82968740  0.82878454  0.34450558    -0.73900
O720        O  0.72237474  0.78843454  0.29699618    -0.73900
O721        O  0.75626979  0.75660092  0.34513177    -0.73800
O722        O  0.79516699  0.85993526  0.29646190    -0.73900
Ni723      Ni  0.79514676  0.78069892  0.26583395     1.25400
Ni724      Ni  0.77524163  0.80940492  0.32268834     1.25400
C725        C  0.81083494  0.86367518  0.26204861     0.88400
C726        C  0.75955411  0.72642841  0.32647304     0.88300
C727        C  0.71387922  0.76819943  0.26276307     0.88300
C728        C  0.85650962  0.82190665  0.32575958     0.88500
C729        C  0.62097998  0.70860501  0.19734181     0.80800
N730        N  0.65948753  0.72363212  0.21323410    -0.77500
C731        C  0.67254750  0.75252542  0.24494626     0.83300
N732        N  0.64675001  0.76614114  0.26082942    -0.77400
C733        C  0.60839583  0.75178354  0.24478775     0.83400
N734        N  0.59545257  0.72282086  0.21298105    -0.79100
C735        C  0.61652268  0.95679543  0.20523723     0.80800
N736        N  0.59217162  0.91915477  0.22013412    -0.77500
C737        C  0.60658448  0.90666870  0.25017302     0.83300
N738        N  0.64547191  0.93211766  0.26524162    -0.77400
C739        C  0.67025689  0.96944656  0.24983961     0.83400
N740        N  0.65558345  0.48168247  0.21985496    -0.79100
C741        C  0.95388513  0.63333626  0.38329708     0.80800
N742        N  0.97823387  0.67097709  0.36839933    -0.77500
C743        C  0.96382098  0.68345804  0.33835617     0.83300
N744        N  0.92493602  0.65800366  0.32328425    -0.77400
C745        C  0.90015345  0.62067432  0.33868669     0.83400
N746        N  0.91482669  0.60844372  0.36867568    -0.79100
O747        O  0.98122880  0.73073599  0.28791519    -0.73800
O748        O  0.54906987  0.83744510  0.24596506    -0.73900
O749        O  0.54970480  0.76263026  0.24305123    -0.73900
O750        O  0.98068834  0.80478521  0.29074845    -0.74000
O751        O  0.52069479  0.82749792  0.34547724    -0.73900
O752        O  0.58971197  0.78534189  0.29777951    -0.73900
O753        O  0.58917268  0.85939159  0.30061421    -0.73800
O754        O  0.52133168  0.75268353  0.34256426    -0.73900
Ni755      Ni  0.51380974  0.78314876  0.26493367     1.25400
Ni756      Ni  0.55659099  0.80697933  0.32359523     1.25400
C757        C  0.99009923  0.72422050  0.32217215     0.88400
C758        C  0.58030326  0.86590721  0.26635707     0.88300
C759        C  0.58116760  0.76718364  0.26263756     0.88300
C760        C  0.98923138  0.82294307  0.32589033     0.88500
O761        O  0.75839839  0.56390957  0.34600801    -0.73800
O762        O  0.79536977  0.99035112  0.29654284    -0.73900
O763        O  0.83191458  0.56352087  0.34259553    -0.73900
O764        O  0.72250529  0.49061724  0.29981145    -0.74000
O765        O  0.73849725  0.52659580  0.24592946    -0.73900
O766        O  0.84790635  0.59949836  0.28871287    -0.73900
O767        O  0.81201203  0.52620503  0.24251665    -0.73800
O768        O  0.77504147  0.59976450  0.29198246    -0.73900
Ni769      Ni  0.77651541  0.52586694  0.32319733     1.24800
Ni770      Ni  0.79389622  0.56424874  0.26532757     1.25400
C771        C  0.76059949  0.59391412  0.32691694     0.88400
C772        C  0.80980930  0.99619963  0.26160746     0.88300
C773        C  0.85795138  0.59331839  0.32260924     0.88300
C774        C  0.71246010  0.49679864  0.26591570     0.88500
O775        O  0.64032795  0.60712012  0.01767193    -0.80300
O776        O  0.98038780  0.51330147  0.11656816    -0.65000
O777        O  0.56637792  0.53856923  0.04246503    -1.11600
C778        C  0.98812178  0.58174999  0.46764967     1.06600
O779        O  0.93007316  0.98298932  0.07084872    -0.78200
O780        O  0.95205765  0.97810997  0.49509945    -0.65800
Ni781      Ni  0.62321919  0.56998847  0.06001089     1.34900
C782        C  0.98162572  0.97953696  0.47459025     0.85300
O783        O  0.54530360  0.50023261  0.11411741    -0.78700
O784        O  0.61342732  0.53522513  0.10325772    -0.89000
C785        C  0.94263545  0.99091304  0.10672620     0.84900
O786        O  0.61832733  0.61202523  0.09341165    -0.67200
O787        O  0.95697208  0.55492299  0.48529510    -0.86500
C788        C  0.58876127  0.61058621  0.11393202     0.85700
C789        C  0.58227789  0.50838231  0.12089124     1.07300
H790        H  0.50787301  0.57799153  0.05870255     0.39100
O791        O  0.50402208  0.55154912  0.04606635    -1.09100
O792        O  0.51772631  0.51107087  0.47605594    -0.65800
Ni793      Ni  0.54615170  0.56401787  0.00781172     1.26300
O794        O  0.55266859  0.57904000  0.11248027    -0.66000
O795        O  0.52509221  0.58987813  0.47440801    -0.78300
C796        C  0.62775999  0.59919272  0.48179603     0.85100
O797        O  0.59000616  0.57680688  0.47195855    -0.65500
Ni798      Ni  0.94717879  0.52013983  0.02852515     1.27400
Ni799      Ni  0.52424555  0.52609627  0.08071753     1.26100
H800        H  0.56253191  0.51212799  0.02982949     0.39700
C801        C  0.96972035  0.61884776  0.41345760    -0.12700
C802        C  0.98030985  0.60357634  0.43818625    -0.14200
C803        C  0.59009450  0.48656095  0.15035623    -0.12700
C804        C  0.60068693  0.97128939  0.17508219    -0.14200
C805        C  0.59710450  0.64624808  0.14125623    -0.12700
C806        C  0.60664028  0.67548737  0.16585668    -0.14200
C807        C  0.65740329  0.61657387  0.45145095    -0.12700
C808        C  0.68203825  0.62868333  0.42537247    -0.14200
C809        C  0.88835253  0.96141383  0.16314478    -0.12700
C810        C  0.91298855  0.97352528  0.13706730    -0.14200
C811        C  0.96374306  0.91463563  0.42266351    -0.12700
C812        C  0.97327748  0.94387476  0.44726410    -0.14200
C813        C  0.94940787  0.88151659  0.89117955     0.80800
N814        N  0.97493941  0.86730463  0.87554299    -0.77500
C815        C  0.96199928  0.83833932  0.84373834     0.83300
N816        N  0.92364402  0.82397512  0.82769603    -0.77400
C817        C  0.89784252  0.83758675  0.84357663     0.83400
N818        N  0.91089953  0.86648278  0.87528668    -0.79100
C819        C  0.86052791  0.94986333  0.69550500     0.80800
N820        N  0.84783332  0.97711080  0.71128498    -0.77500
C821        C  0.82360816  0.96744666  0.74354714     0.83300
N822        N  0.81238627  0.93078848  0.75986674    -0.77400
C823        C  0.82438939  0.90324401  0.74391867     0.83400
N824        N  0.84861474  0.91277516  0.71163928    -0.79100
C825        C  0.70986416  0.64023678  0.89301337     0.80800
N826        N  0.72256540  0.61299394  0.87723535    -0.77500
C827        C  0.74679393  0.62266231  0.84497548     0.83300
N828        N  0.75801191  0.65931972  0.82865600    -0.77400
C829        C  0.74600222  0.68685967  0.84460228     0.83400
N830        N  0.72177402  0.67732457  0.87687959    -0.79100
O831        O  0.81411826  0.83350213  0.74339003    -0.73800
O832        O  0.77522210  0.73016894  0.79205994    -0.73900
O833        O  0.74070034  0.76131951  0.74401705    -0.73900
O834        O  0.84801455  0.80167064  0.79152671    -0.74000
O835        O  0.82968737  0.82878451  0.84450560    -0.73900
O836        O  0.72237470  0.78843454  0.79699620    -0.73900
O837        O  0.75626978  0.75660090  0.84513180    -0.73800
O838        O  0.79516699  0.85993525  0.79646182    -0.73900
Ni839      Ni  0.79514681  0.78069898  0.76583400     1.25400
Ni840      Ni  0.77524162  0.80940490  0.82268832     1.25400
C841        C  0.81083495  0.86367518  0.76204854     0.88400
C842        C  0.75955407  0.72642839  0.82647305     0.88300
C843        C  0.71387923  0.76819945  0.76276309     0.88300
C844        C  0.85650965  0.82190673  0.82575958     0.88500
C845        C  0.62097997  0.70860494  0.69734179     0.80800
N846        N  0.65948757  0.72363215  0.71323403    -0.77500
C847        C  0.67254751  0.75252544  0.74494621     0.83300
N848        N  0.64675000  0.76614114  0.76082933    -0.77400
C849        C  0.60839577  0.75178342  0.74478772     0.83400
N850        N  0.59545251  0.72282070  0.71298106    -0.79100
C851        C  0.61652265  0.95679538  0.70523727     0.80800
N852        N  0.59217162  0.91915468  0.72013410    -0.77500
C853        C  0.60658447  0.90666863  0.75017304     0.83300
N854        N  0.64547191  0.93211759  0.76524163    -0.77400
C855        C  0.67025684  0.96944656  0.74983972     0.83400
N856        N  0.65558345  0.48168260  0.71985505    -0.79100
C857        C  0.95388509  0.63333621  0.88329714     0.80800
N858        N  0.97823380  0.67097709  0.86839944    -0.77500
C859        C  0.96382093  0.68345796  0.83835618     0.83300
N860        N  0.92493602  0.65800354  0.82328421    -0.77400
C861        C  0.90015344  0.62067423  0.83868667     0.83400
N862        N  0.91482669  0.60844363  0.86867565    -0.79100
O863        O  0.98122857  0.73073592  0.78791521    -0.73800
O864        O  0.54906981  0.83744505  0.74596510    -0.73900
O865        O  0.54970473  0.76263013  0.74305114    -0.73900
O866        O  0.98068822  0.80478514  0.79074840    -0.74000
O867        O  0.52069482  0.82749795  0.84547714    -0.73900
O868        O  0.58971186  0.78534171  0.79777947    -0.73900
O869        O  0.58917269  0.85939147  0.80061423    -0.73800
O870        O  0.52133163  0.75268344  0.84256424    -0.73900
Ni871      Ni  0.51380968  0.78314865  0.76493362     1.25400
Ni872      Ni  0.55659096  0.80697923  0.82359522     1.25400
C873        C  0.99009912  0.72422042  0.82217213     0.88400
C874        C  0.58030323  0.86590713  0.76635711     0.88300
C875        C  0.58116752  0.76718349  0.76263750     0.88300
C876        C  0.98923136  0.82294307  0.82589026     0.88500
O877        O  0.75839832  0.56390945  0.84600797    -0.73800
O878        O  0.79536972  0.99035106  0.79654275    -0.73900
O879        O  0.83191455  0.56352080  0.84259549    -0.73900
O880        O  0.72250529  0.49061724  0.79981149    -0.74000
O881        O  0.73849726  0.52659587  0.74592953    -0.73900
O882        O  0.84790637  0.59949832  0.78871283    -0.73900
O883        O  0.81201197  0.52620496  0.74251651    -0.73800
O884        O  0.77504151  0.59976451  0.79198248    -0.73900
Ni885      Ni  0.77651539  0.52586690  0.82319728     1.24800
Ni886      Ni  0.79389624  0.56424875  0.76532752     1.25400
C887        C  0.76059948  0.59391406  0.82691693     0.88400
C888        C  0.80980920  0.99619950  0.76160736     0.88300
C889        C  0.85795137  0.59331832  0.82260921     0.88300
C890        C  0.71246011  0.49679871  0.76591578     0.88500
O891        O  0.64032797  0.60712022  0.51767188    -0.80300
O892        O  0.98038772  0.51330132  0.61656824    -0.65000
O893        O  0.56637794  0.53856930  0.54246511    -1.11600
C894        C  0.98812176  0.58174995  0.96764974     1.06600
O895        O  0.93007316  0.98298930  0.57084868    -0.78200
O896        O  0.95205766  0.97810997  0.99509950    -0.65800
Ni897      Ni  0.62321923  0.56998856  0.56001090     1.34900
C898        C  0.98162573  0.97953700  0.97459029     0.85300
O899        O  0.54530357  0.50023259  0.61411744    -0.78700
O900        O  0.61342730  0.53522517  0.60325774    -0.89000
C901        C  0.94263539  0.99091289  0.60672618     0.84900
O902        O  0.61832735  0.61202527  0.59341161    -0.67200
O903        O  0.95697205  0.55492297  0.98529514    -0.86500
C904        C  0.58876127  0.61058629  0.61393193     0.85700
C905        C  0.58227786  0.50838229  0.62089123     1.07300
H906        H  0.50787311  0.57799240  0.55870297     0.39100
O907        O  0.50402206  0.55154916  0.54606640    -1.09100
O908        O  0.51772627  0.51107082  0.97605603    -0.65800
Ni909      Ni  0.54615171  0.56401791  0.50781171     1.26300
O910        O  0.55266859  0.57904006  0.61248024    -0.66000
O911        O  0.52509219  0.58987811  0.97440811    -0.78300
C912        C  0.62775998  0.59919265  0.98179609     0.85100
O913        O  0.59000614  0.57680696  0.97195860    -0.65500
Ni914      Ni  0.94717878  0.52013979  0.52852512     1.27400
Ni915      Ni  0.52424552  0.52609631  0.58071760     1.26100
H916        H  0.56253206  0.51212852  0.52982984     0.39700
C917        C  0.96972029  0.61884769  0.91345769    -0.12700
C918        C  0.98030983  0.60357628  0.93818632    -0.14200
C919        C  0.59009443  0.48656084  0.65035615    -0.12700
C920        C  0.60068693  0.97128929  0.67508214    -0.14200
C921        C  0.59710456  0.64624820  0.64125606    -0.12700
C922        C  0.60664034  0.67548744  0.66585656    -0.14200
C923        C  0.65740330  0.61657376  0.95145101    -0.12700
C924        C  0.68203827  0.62868330  0.92537254    -0.14200
C925        C  0.88835243  0.96141369  0.66314471    -0.12700
C926        C  0.91298844  0.97352508  0.63706722    -0.14200
C927        C  0.96374309  0.91463565  0.92266353    -0.12700
C928        C  0.97327749  0.94387479  0.94726412    -0.14200
loop_ 
_geom_bond_atom_site_label_1 
_geom_bond_atom_site_label_2 
_geom_bond_distance 
_geom_bond_site_symmetry_2 
_ccdc_geom_bond_type 
C1            N2   1.360       .  A
C1            N6   1.358       .  A
C1          C115   1.439       .  S
N2            C3   1.361       .  A
C3            N4   1.358       .  A
C3           C64   1.471       .  S
N4            C5   1.357       .  A
C5            N6   1.358       .  A
C5           C32   1.470       .  S
C7            N8   1.359       .  A
C7           N12   1.358       .  A
C7          C113   1.433       .  S
N8            C9   1.358       .  A
C9           N10   1.352       .  A
C9           C76   1.461       .  S
N10          C11   1.353       .  A
C11          N12   1.358       .  A
C11          C29   1.460       .  S
C13          N14   1.359       .  A
C13          N18   1.358       .  A
C13         C112   1.433       .  S
N14          C15   1.358       .  A
C15          N16   1.352       .  A
C15          C75   1.461       .  S
N16          C17   1.353       .  A
C17          N18   1.358       .  A
C17          C30   1.460       .  S
O19         Ni27   1.915       .  S
O19          C29   1.279       .  A
O20         Ni27   1.906       .  S
O20          C30   1.280       .  A
O21         Ni27   1.922       .  S
O21          C31   1.282       .  A
O22         Ni27   1.917       .  S
O22          C32   1.281       .  A
O23         Ni28   1.922       .  S
O23          C32   1.282       .  A
O24         Ni28   1.917       .  S
O24          C31   1.281       .  A
O25         Ni28   1.915       .  S
O25          C30   1.279       .  A
O26         Ni28   1.906       .  S
O26          C29   1.280       .  A
Ni27        Ni28   2.392       .  S
C31          C35   1.470       .  S
C33          N34   1.358       .  A
C33          N38   1.360       .  A
C33         C110   1.439       .  S
N34          C35   1.358       .  A
C35          N36   1.357       .  A
N36          C37   1.358       .  A
C37          N38   1.361       .  A
C37          C63   1.471       .  S
C39          N40   1.357       .  A
C39         N276   1.357       .  A
C39         C108   1.437       .  S
N40          C41   1.359       .  A
C41          N42   1.361       .  A
C41          C62   1.470       .  S
N42          C43   1.360       .  A
C43         N276   1.358       .  A
C43         C310   1.472       .  S
N44         C271   1.357       .  A
N44         C275   1.358       .  A
C45          N46   1.357       .  A
C45          N50   1.357       .  A
C45         C105   1.437       .  S
N46          C47   1.359       .  A
C47          N48   1.361       .  A
C47          C61   1.470       .  S
N48          C49   1.360       .  A
C49          N50   1.358       .  A
C49          C77   1.472       .  S
O51        Ni523   1.917       .  S
O51          C61   1.281       .  A
O52         Ni59   1.923       .  S
O52          C62   1.282       .  A
O53         Ni59   1.925       .  S
O53          C63   1.282       .  A
O54        Ni523   1.916       .  S
O54          C64   1.281       .  A
O55         Ni60   1.925       .  S
O55         C528   1.282   1_455  A
O56         Ni60   1.916       .  S
O56          C63   1.281       .  A
O57         Ni60   1.917       .  S
O57          C62   1.281       .  A
O58         Ni60   1.923       .  S
O58         C525   1.282   1_455  A
Ni59        O515   1.917   1_455  S
Ni59        O518   1.916   1_455  S
Ni59        Ni60   2.390       .  S
C61         O522   1.282       .  A
C64         O519   1.282       .  A
O65         Ni73   1.916       .  S
O65          C75   1.280       .  A
O66        Ni305   1.907       .  S
O66          C76   1.280       .  A
O67         Ni73   1.924       .  S
O67          C77   1.283       .  A
O68         Ni73   1.919   1_565  S
O68          C78   1.281       .  A
O69         Ni74   1.924       .  S
O69          C78   1.283   1_545  A
O70         Ni74   1.919       .  S
O70          C77   1.281       .  A
O71         Ni74   1.916       .  S
O71         C308   1.280   1_545  A
O72         Ni74   1.907       .  S
O72          C75   1.280       .  A
Ni73        O298   1.907   1_545  S
Ni73        Ni74   2.392       .  S
C76         O303   1.280       .  A
C78         C275   1.472       .  S
O79         Ni85   1.930       .  S
O79         C216   1.269   1_554  A
O80        Ni567   1.901       .  S
O80         C321   1.264   1_545  A
O81         Ni85   1.922       .  S
O81        Ni103   1.911       .  S
O81         Ni97   1.913       .  S
O81         H104   0.967       .  S
C82         C106   1.436       .  S
C82          O91   1.272       .  A
C82         O563   1.272       .  A
O83        Ni334   1.930       .  S
O83          C89   1.269       .  A
O84        Ni450   1.908       .  S
O84          C86   1.267       .  A
Ni85         O88   1.924       .  S
Ni85         O90   1.908       .  S
C86         C116   1.439       .  S
C86         O792   1.271       .  A
O87        Ni103   1.916       .  S
O87          C93   1.272       .  A
O88          C93   1.272       .  A
C89         C114   1.432       .  S
C89         O312   1.264       .  A
O90          C92   1.267       .  A
O91        Ni218   1.924       .  S
C92         C109   1.439       .  S
C92          O98   1.271       .  A
C93         C107   1.436   1_545  S
H94          O95   0.967       .  S
O95        Ni103   1.913       .  S
O95         Ni97   1.911       .  S
O95        Ni566   1.922   1_455  S
O96        Ni213   1.932       .  S
O96         C782   1.271   1_445  A
Ni97        O212   1.932   1_554  S
Ni97        O217   1.901   1_554  S
Ni97        O215   1.916   1_554  S
O98        Ni103   1.932       .  S
O99        Ni213   1.916       .  S
O99         C546   1.272   1_455  A
C100        C111   1.432       .  S
C100        O101   1.264       .  A
C100        O195   1.269       .  A
O101       Ni213   1.901       .  S
Ni102       O315   1.930   1_545  S
Ni102       O432   1.908   1_544  S
Ni102       O207   1.924   1_554  S
Ni102       O559   1.922       .  S
Ni103       O544   1.901   1_455  S
C105        C106   1.207       .  T
C107        C340   1.207       .  T
C108        C339   1.207       .  T
C109        C110   1.208       .  T
C111        C112   1.204       .  T
C113        C114   1.204       .  T
C115        C116   1.208       .  T
C117        N118   1.360       .  A
C117        N122   1.358       .  A
C117        C231   1.439       .  S
N118        C119   1.361       .  A
C119        N120   1.358       .  A
C119        C180   1.471       .  S
N120        C121   1.357       .  A
C121        N122   1.358       .  A
C121        C148   1.470       .  S
C123        N124   1.359       .  A
C123        N128   1.358       .  A
C123        C229   1.433       .  S
N124        C125   1.358       .  A
C125        N126   1.352       .  A
C125        C192   1.461       .  S
N126        C127   1.353       .  A
C127        N128   1.358       .  A
C127        C145   1.460       .  S
C129        N130   1.359       .  A
C129        N134   1.358       .  A
C129        C228   1.433       .  S
N130        C131   1.358       .  A
C131        N132   1.352       .  A
C131        C191   1.461       .  S
N132        C133   1.353       .  A
C133        N134   1.358       .  A
C133        C146   1.460       .  S
O135       Ni143   1.915       .  S
O135        C145   1.279       .  A
O136       Ni143   1.906       .  S
O136        C146   1.280       .  A
O137       Ni143   1.922       .  S
O137        C147   1.282       .  A
O138       Ni143   1.917       .  S
O138        C148   1.281       .  A
O139       Ni144   1.922       .  S
O139        C148   1.282       .  A
O140       Ni144   1.917       .  S
O140        C147   1.281       .  A
O141       Ni144   1.915       .  S
O141        C146   1.279       .  A
O142       Ni144   1.906       .  S
O142        C145   1.280       .  A
Ni143      Ni144   2.392       .  S
C147        C151   1.470       .  S
C149        N150   1.358       .  A
C149        N154   1.360       .  A
C149        C226   1.439       .  S
N150        C151   1.358       .  A
C151        N152   1.357       .  A
N152        C153   1.358       .  A
C153        N154   1.361       .  A
C153        C179   1.471       .  S
C155        N156   1.357       .  A
C155        N392   1.357       .  A
C155        C224   1.437       .  S
N156        C157   1.359       .  A
C157        N158   1.361       .  A
C157        C178   1.470       .  S
N158        C159   1.360       .  A
C159        N392   1.358       .  A
C159        C426   1.472       .  S
N160        C387   1.357       .  A
N160        C391   1.358       .  A
C161        N162   1.357       .  A
C161        N166   1.357       .  A
C161        C221   1.437       .  S
N162        C163   1.359       .  A
C163        N164   1.361       .  A
C163        C177   1.470       .  S
N164        C165   1.360       .  A
C165        N166   1.358       .  A
C165        C193   1.472       .  S
O167       Ni639   1.917       .  S
O167        C177   1.281       .  A
O168       Ni175   1.923       .  S
O168        C178   1.282       .  A
O169       Ni175   1.925       .  S
O169        C179   1.282       .  A
O170       Ni639   1.916       .  S
O170        C180   1.281       .  A
O171       Ni176   1.925       .  S
O171        C644   1.282   1_455  A
O172       Ni176   1.916       .  S
O172        C179   1.281       .  A
O173       Ni176   1.917       .  S
O173        C178   1.281       .  A
O174       Ni176   1.923       .  S
O174        C641   1.282   1_455  A
Ni175       O631   1.917   1_455  S
Ni175       O634   1.916   1_455  S
Ni175      Ni176   2.390       .  S
C177        O638   1.282       .  A
C180        O635   1.282       .  A
O181       Ni189   1.916       .  S
O181        C191   1.280       .  A
O182       Ni421   1.907       .  S
O182        C192   1.280       .  A
O183       Ni189   1.924       .  S
O183        C193   1.283       .  A
O184       Ni189   1.919   1_565  S
O184        C194   1.281       .  A
O185       Ni190   1.924       .  S
O185        C194   1.283   1_545  A
O186       Ni190   1.919       .  S
O186        C193   1.281       .  A
O187       Ni190   1.916       .  S
O187        C424   1.280   1_545  A
O188       Ni190   1.907       .  S
O188        C191   1.280       .  A
Ni189       O414   1.907   1_545  S
Ni189      Ni190   2.392       .  S
C192        O419   1.280       .  A
C194        C391   1.472       .  S
O195       Ni201   1.930       .  S
O196       Ni683   1.901       .  S
O196        C437   1.264   1_545  A
O197       Ni201   1.922       .  S
O197       Ni219   1.911       .  S
O197       Ni213   1.913       .  S
O197        H220   0.967       .  S
C198        C222   1.436       .  S
C198        O679   1.272       .  A
C198        O207   1.272       .  A
O199       Ni450   1.930       .  S
O199        C205   1.269       .  A
O200       Ni334   1.908   1_556  S
O200        C202   1.267       .  A
Ni201       O204   1.924       .  S
Ni201       O206   1.908       .  S
C202        C232   1.439       .  S
C202        O908   1.271       .  A
O203       Ni219   1.916       .  S
O203        C209   1.272       .  A
O204        C209   1.272       .  A
C205        C230   1.432       .  S
C205        O428   1.264       .  A
O206        C208   1.267       .  A
C208        C225   1.439       .  S
C208        O214   1.271       .  A
C209        C223   1.436   1_545  S
H210        O211   0.967       .  S
O211       Ni219   1.913       .  S
O211       Ni213   1.911       .  S
O211       Ni682   1.922   1_455  S
O212        C898   1.271   1_445  A
O214       Ni219   1.932       .  S
O215        C662   1.272   1_455  A
C216        C227   1.432       .  S
C216        O217   1.264       .  A
Ni218       O431   1.930   1_545  S
Ni218       O316   1.908   1_545  S
Ni218       O675   1.922       .  S
Ni219       O660   1.901   1_455  S
C221        C222   1.207       .  T
C223        C456   1.207       .  T
C224        C455   1.207       .  T
C225        C226   1.208       .  T
C227        C228   1.204       .  T
C229        C230   1.204       .  T
C231        C232   1.208       .  T
C233        N234   1.360       .  A
C233        N238   1.358       .  A
C233        C347   1.439       .  S
N234        C235   1.361       .  A
C235        N236   1.358       .  A
C235        C296   1.471       .  S
N236        C237   1.357       .  A
C237        N238   1.358       .  A
C237        C264   1.470       .  S
C239        N240   1.359       .  A
C239        N244   1.358       .  A
C239        C345   1.433       .  S
N240        C241   1.358       .  A
C241        N242   1.352       .  A
C241        C308   1.461       .  S
N242        C243   1.353       .  A
C243        N244   1.358       .  A
C243        C261   1.460       .  S
C245        N246   1.359       .  A
C245        N250   1.358       .  A
C245        C344   1.433       .  S
N246        C247   1.358       .  A
C247        N248   1.352       .  A
C247        C307   1.461       .  S
N248        C249   1.353       .  A
C249        N250   1.358       .  A
C249        C262   1.460       .  S
O251       Ni259   1.915       .  S
O251        C261   1.279       .  A
O252       Ni259   1.906       .  S
O252        C262   1.280       .  A
O253       Ni259   1.922       .  S
O253        C263   1.282       .  A
O254       Ni259   1.917       .  S
O254        C264   1.281       .  A
O255       Ni260   1.922       .  S
O255        C264   1.282       .  A
O256       Ni260   1.917       .  S
O256        C263   1.281       .  A
O257       Ni260   1.915       .  S
O257        C262   1.279       .  A
O258       Ni260   1.906       .  S
O258        C261   1.280       .  A
Ni259      Ni260   2.392       .  S
C263        C267   1.470       .  S
C265        N266   1.358       .  A
C265        N270   1.360       .  A
C265        C342   1.439       .  S
N266        C267   1.358       .  A
C267        N268   1.357       .  A
N268        C269   1.358       .  A
C269        N270   1.361       .  A
C269        C295   1.471       .  S
C271        N272   1.357       .  A
C271        C340   1.437       .  S
N272        C273   1.359       .  A
C273        N274   1.361       .  A
C273        C294   1.470       .  S
N274        C275   1.360       .  A
C277        N278   1.357       .  A
C277        N282   1.357       .  A
C277        C337   1.437       .  S
N278        C279   1.359       .  A
C279        N280   1.361       .  A
C279        C293   1.470       .  S
N280        C281   1.360       .  A
C281        N282   1.358       .  A
C281        C309   1.472       .  S
O283       Ni755   1.917       .  S
O283        C293   1.281       .  A
O284       Ni291   1.923       .  S
O284        C294   1.282       .  A
O285       Ni291   1.925       .  S
O285        C295   1.282       .  A
O286       Ni755   1.916       .  S
O286        C296   1.281       .  A
O287       Ni292   1.925       .  S
O287        C760   1.282   1_455  A
O288       Ni292   1.916       .  S
O288        C295   1.281       .  A
O289       Ni292   1.917       .  S
O289        C294   1.281       .  A
O290       Ni292   1.923       .  S
O290        C757   1.282   1_455  A
Ni291       O747   1.917   1_455  S
Ni291       O750   1.916   1_455  S
Ni291      Ni292   2.390       .  S
C293        O754   1.282       .  A
C296        O751   1.282       .  A
O297       Ni305   1.916       .  S
O297        C307   1.280       .  A
O298        C308   1.280       .  A
O299       Ni305   1.924       .  S
O299        C309   1.283       .  A
O300       Ni305   1.919       .  S
O300        C310   1.281       .  A
O301       Ni306   1.924       .  S
O301        C310   1.283       .  A
O302       Ni306   1.919       .  S
O302        C309   1.281       .  A
O303       Ni306   1.916       .  S
O304       Ni306   1.907       .  S
O304        C307   1.280       .  A
Ni305      Ni306   2.392       .  S
O311       Ni317   1.930       .  S
O311        C448   1.269   1_554  A
O312       Ni799   1.901       .  S
O313       Ni317   1.922       .  S
O313       Ni335   1.911       .  S
O313       Ni329   1.913       .  S
O313        H336   0.967       .  S
C314        C338   1.436       .  S
C314        O795   1.272       .  A
C314        O323   1.272       .  A
O315        C321   1.269       .  A
O316        C318   1.267       .  A
Ni317       O320   1.924       .  S
Ni317       O322   1.908       .  S
C318        C348   1.439       .  S
C318        O560   1.271   1_565  A
O319       Ni335   1.916       .  S
O319        C325   1.272       .  A
O320        C325   1.272       .  A
C321        C346   1.432       .  S
O322        C324   1.267       .  A
O323       Ni450   1.924       .  S
C324        C341   1.439       .  S
C324        O330   1.271       .  A
C325        C339   1.436       .  S
H326        O327   0.967       .  S
O327       Ni335   1.913       .  S
O327       Ni329   1.911       .  S
O327       Ni798   1.922   1_455  S
O328       Ni445   1.932       .  S
O328        C550   1.271   1_455  A
Ni329       O444   1.932   1_554  S
Ni329       O449   1.901   1_554  S
Ni329       O447   1.916   1_554  S
O330       Ni335   1.932       .  S
O331       Ni445   1.916       .  S
O331        C778   1.272   1_455  A
C332        C343   1.432       .  S
C332        O427   1.269       .  A
C332        O333   1.264       .  A
O333       Ni445   1.901       .  S
Ni334       O439   1.924   1_554  S
Ni334       O791   1.922       .  S
Ni335       O776   1.901   1_455  S
C337        C338   1.207       .  T
C341        C342   1.208       .  T
C343        C344   1.204       .  T
C345        C346   1.204       .  T
C347        C348   1.208       .  T
C349        N350   1.360       .  A
C349        N354   1.358       .  A
C349        C463   1.439       .  S
N350        C351   1.361       .  A
C351        N352   1.358       .  A
C351        C412   1.471       .  S
N352        C353   1.357       .  A
C353        N354   1.358       .  A
C353        C380   1.470       .  S
C355        N356   1.359       .  A
C355        N360   1.358       .  A
C355        C461   1.433       .  S
N356        C357   1.358       .  A
C357        N358   1.352       .  A
C357        C424   1.461       .  S
N358        C359   1.353       .  A
C359        N360   1.358       .  A
C359        C377   1.460       .  S
C361        N362   1.359       .  A
C361        N366   1.358       .  A
C361        C460   1.433       .  S
N362        C363   1.358       .  A
C363        N364   1.352       .  A
C363        C423   1.461       .  S
N364        C365   1.353       .  A
C365        N366   1.358       .  A
C365        C378   1.460       .  S
O367       Ni375   1.915       .  S
O367        C377   1.279       .  A
O368       Ni375   1.906       .  S
O368        C378   1.280       .  A
O369       Ni375   1.922       .  S
O369        C379   1.282       .  A
O370       Ni375   1.917       .  S
O370        C380   1.281       .  A
O371       Ni376   1.922       .  S
O371        C380   1.282       .  A
O372       Ni376   1.917       .  S
O372        C379   1.281       .  A
O373       Ni376   1.915       .  S
O373        C378   1.279       .  A
O374       Ni376   1.906       .  S
O374        C377   1.280       .  A
Ni375      Ni376   2.392       .  S
C379        C383   1.470       .  S
C381        N382   1.358       .  A
C381        N386   1.360       .  A
C381        C458   1.439       .  S
N382        C383   1.358       .  A
C383        N384   1.357       .  A
N384        C385   1.358       .  A
C385        N386   1.361       .  A
C385        C411   1.471       .  S
C387        N388   1.357       .  A
C387        C456   1.437       .  S
N388        C389   1.359       .  A
C389        N390   1.361       .  A
C389        C410   1.470       .  S
N390        C391   1.360       .  A
C393        N394   1.357       .  A
C393        N398   1.357       .  A
C393        C453   1.437       .  S
N394        C395   1.359       .  A
C395        N396   1.361       .  A
C395        C409   1.470       .  S
N396        C397   1.360       .  A
C397        N398   1.358       .  A
C397        C425   1.472       .  S
O399       Ni871   1.917       .  S
O399        C409   1.281       .  A
O400       Ni407   1.923       .  S
O400        C410   1.282       .  A
O401       Ni407   1.925       .  S
O401        C411   1.282       .  A
O402       Ni871   1.916       .  S
O402        C412   1.281       .  A
O403       Ni408   1.925       .  S
O403        C876   1.282   1_455  A
O404       Ni408   1.916       .  S
O404        C411   1.281       .  A
O405       Ni408   1.917       .  S
O405        C410   1.281       .  A
O406       Ni408   1.923       .  S
O406        C873   1.282   1_455  A
Ni407       O863   1.917   1_455  S
Ni407       O866   1.916   1_455  S
Ni407      Ni408   2.390       .  S
C409        O870   1.282       .  A
C412        O867   1.282       .  A
O413       Ni421   1.916       .  S
O413        C423   1.280       .  A
O414        C424   1.280       .  A
O415       Ni421   1.924       .  S
O415        C425   1.283       .  A
O416       Ni421   1.919       .  S
O416        C426   1.281       .  A
O417       Ni422   1.924       .  S
O417        C426   1.283       .  A
O418       Ni422   1.919       .  S
O418        C425   1.281       .  A
O419       Ni422   1.916       .  S
O420       Ni422   1.907       .  S
O420        C423   1.280       .  A
Ni421      Ni422   2.392       .  S
O427       Ni433   1.930       .  S
O428       Ni915   1.901       .  S
O429       Ni433   1.922       .  S
O429       Ni451   1.911       .  S
O429       Ni445   1.913       .  S
O429        H452   0.967       .  S
C430        C454   1.436       .  S
C430        O911   1.272       .  A
C430        O439   1.272       .  A
O431        C437   1.269       .  A
O432        C434   1.267       .  A
Ni433       O436   1.924       .  S
Ni433       O438   1.908       .  S
C434        C464   1.439       .  S
C434        O676   1.271   1_565  A
O435       Ni451   1.916       .  S
O435        C441   1.272       .  A
O436        C441   1.272       .  A
C437        C462   1.432       .  S
O438        C440   1.267       .  A
C440        C457   1.439       .  S
C440        O446   1.271       .  A
C441        C455   1.436       .  S
H442        O443   0.967       .  S
O443       Ni451   1.913       .  S
O443       Ni445   1.911       .  S
O443       Ni914   1.922   1_455  S
O444        C666   1.271   1_455  A
O446       Ni451   1.932       .  S
O447        C894   1.272   1_455  A
C448        C459   1.432       .  S
C448        O449   1.264       .  A
Ni450       O907   1.922       .  S
Ni451       O892   1.901   1_455  S
C453        C454   1.207       .  T
C457        C458   1.208       .  T
C459        C460   1.204       .  T
C461        C462   1.204       .  T
C463        C464   1.208       .  T
C465        N466   1.360       .  A
C465        N470   1.358       .  A
C465        C579   1.439       .  S
N466        C467   1.361       .  A
C467        N468   1.358       .  A
C467        C528   1.471       .  S
N468        C469   1.357       .  A
C469        N470   1.358       .  A
C469        C496   1.470       .  S
C471        N472   1.359       .  A
C471        N476   1.358       .  A
C471        C577   1.433       .  S
N472        C473   1.358       .  A
C473        N474   1.352       .  A
C473        C540   1.461       .  S
N474        C475   1.353       .  A
C475        N476   1.358       .  A
C475        C493   1.460       .  S
C477        N478   1.359       .  A
C477        N482   1.358       .  A
C477        C576   1.433       .  S
N478        C479   1.358       .  A
C479        N480   1.352       .  A
C479        C539   1.461       .  S
N480        C481   1.353       .  A
C481        N482   1.358       .  A
C481        C494   1.460       .  S
O483       Ni491   1.915       .  S
O483        C493   1.279       .  A
O484       Ni491   1.906       .  S
O484        C494   1.280       .  A
O485       Ni491   1.922       .  S
O485        C495   1.282       .  A
O486       Ni491   1.917       .  S
O486        C496   1.281       .  A
O487       Ni492   1.922       .  S
O487        C496   1.282       .  A
O488       Ni492   1.917       .  S
O488        C495   1.281       .  A
O489       Ni492   1.915       .  S
O489        C494   1.279       .  A
O490       Ni492   1.906       .  S
O490        C493   1.280       .  A
Ni491      Ni492   2.392       .  S
C495        C499   1.470       .  S
C497        N498   1.358       .  A
C497        N502   1.360       .  A
C497        C574   1.439       .  S
N498        C499   1.358       .  A
C499        N500   1.357       .  A
N500        C501   1.358       .  A
C501        N502   1.361       .  A
C501        C527   1.471       .  S
C503        N504   1.357       .  A
C503        N740   1.357       .  A
C503        C572   1.437       .  S
N504        C505   1.359       .  A
C505        N506   1.361       .  A
C505        C526   1.470       .  S
N506        C507   1.360       .  A
C507        N740   1.358       .  A
C507        C774   1.472       .  S
N508        C735   1.357       .  A
N508        C739   1.358       .  A
C509        N510   1.357       .  A
C509        N514   1.357       .  A
C509        C569   1.437       .  S
N510        C511   1.359       .  A
C511        N512   1.361       .  A
C511        C525   1.470       .  S
N512        C513   1.360       .  A
C513        N514   1.358       .  A
C513        C541   1.472       .  S
O515        C525   1.281       .  A
O516       Ni523   1.923       .  S
O516        C526   1.282       .  A
O517       Ni523   1.925       .  S
O517        C527   1.282       .  A
O518        C528   1.281       .  A
O519       Ni524   1.925       .  S
O520       Ni524   1.916       .  S
O520        C527   1.281       .  A
O521       Ni524   1.917       .  S
O521        C526   1.281       .  A
O522       Ni524   1.923       .  S
Ni523      Ni524   2.390       .  S
O529       Ni537   1.916       .  S
O529        C539   1.280       .  A
O530       Ni769   1.907       .  S
O530        C540   1.280       .  A
O531       Ni537   1.924       .  S
O531        C541   1.283       .  A
O532       Ni537   1.919   1_565  S
O532        C542   1.281       .  A
O533       Ni538   1.924       .  S
O533        C542   1.283   1_545  A
O534       Ni538   1.919       .  S
O534        C541   1.281       .  A
O535       Ni538   1.916       .  S
O535        C772   1.280   1_545  A
O536       Ni538   1.907       .  S
O536        C539   1.280       .  A
Ni537       O762   1.907   1_545  S
Ni537      Ni538   2.392       .  S
C540        O767   1.280       .  A
C542        C739   1.472       .  S
O543       Ni549   1.930       .  S
O543        C680   1.269   1_554  A
O544        C785   1.264   1_545  A
O545       Ni549   1.922       .  S
O545       Ni567   1.911       .  S
O545       Ni561   1.913       .  S
O545        H568   0.967       .  S
C546        C570   1.436       .  S
C546        O555   1.272       .  A
O547       Ni798   1.930       .  S
O547        C553   1.269       .  A
O548       Ni914   1.908       .  S
O548        C550   1.267       .  A
Ni549       O552   1.924       .  S
Ni549       O554   1.908       .  S
C550        C580   1.439       .  S
O551       Ni567   1.916       .  S
O551        C557   1.272       .  A
O552        C557   1.272       .  A
C553        C578   1.432       .  S
C553        O776   1.264       .  A
O554        C556   1.267       .  A
O555       Ni682   1.924       .  S
C556        C573   1.439       .  S
C556        O562   1.271       .  A
C557        C571   1.436   1_545  S
H558        O559   0.967       .  S
O559       Ni567   1.913       .  S
O559       Ni561   1.911       .  S
O560       Ni677   1.932       .  S
Ni561       O676   1.932   1_554  S
Ni561       O681   1.901   1_554  S
Ni561       O679   1.916   1_554  S
O562       Ni567   1.932       .  S
O563       Ni677   1.916       .  S
C564        C575   1.432       .  S
C564        O659   1.269       .  A
C564        O565   1.264       .  A
O565       Ni677   1.901       .  S
Ni566       O779   1.930   1_545  S
Ni566       O896   1.908   1_544  S
Ni566       O671   1.924   1_554  S
C569        C570   1.207       .  T
C571        C804   1.207       .  T
C572        C803   1.207       .  T
C573        C574   1.208       .  T
C575        C576   1.204       .  T
C577        C578   1.204       .  T
C579        C580   1.208       .  T
C581        N582   1.360       .  A
C581        N586   1.358       .  A
C581        C695   1.439       .  S
N582        C583   1.361       .  A
C583        N584   1.358       .  A
C583        C644   1.471       .  S
N584        C585   1.357       .  A
C585        N586   1.358       .  A
C585        C612   1.470       .  S
C587        N588   1.359       .  A
C587        N592   1.358       .  A
C587        C693   1.433       .  S
N588        C589   1.358       .  A
C589        N590   1.352       .  A
C589        C656   1.461       .  S
N590        C591   1.353       .  A
C591        N592   1.358       .  A
C591        C609   1.460       .  S
C593        N594   1.359       .  A
C593        N598   1.358       .  A
C593        C692   1.433       .  S
N594        C595   1.358       .  A
C595        N596   1.352       .  A
C595        C655   1.461       .  S
N596        C597   1.353       .  A
C597        N598   1.358       .  A
C597        C610   1.460       .  S
O599       Ni607   1.915       .  S
O599        C609   1.279       .  A
O600       Ni607   1.906       .  S
O600        C610   1.280       .  A
O601       Ni607   1.922       .  S
O601        C611   1.282       .  A
O602       Ni607   1.917       .  S
O602        C612   1.281       .  A
O603       Ni608   1.922       .  S
O603        C612   1.282       .  A
O604       Ni608   1.917       .  S
O604        C611   1.281       .  A
O605       Ni608   1.915       .  S
O605        C610   1.279       .  A
O606       Ni608   1.906       .  S
O606        C609   1.280       .  A
Ni607      Ni608   2.392       .  S
C611        C615   1.470       .  S
C613        N614   1.358       .  A
C613        N618   1.360       .  A
C613        C690   1.439       .  S
N614        C615   1.358       .  A
C615        N616   1.357       .  A
N616        C617   1.358       .  A
C617        N618   1.361       .  A
C617        C643   1.471       .  S
C619        N620   1.357       .  A
C619        N856   1.357       .  A
C619        C688   1.437       .  S
N620        C621   1.359       .  A
C621        N622   1.361       .  A
C621        C642   1.470       .  S
N622        C623   1.360       .  A
C623        N856   1.358       .  A
C623        C890   1.472       .  S
N624        C851   1.357       .  A
N624        C855   1.358       .  A
C625        N626   1.357       .  A
C625        N630   1.357       .  A
C625        C685   1.437       .  S
N626        C627   1.359       .  A
C627        N628   1.361       .  A
C627        C641   1.470       .  S
N628        C629   1.360       .  A
C629        N630   1.358       .  A
C629        C657   1.472       .  S
O631        C641   1.281       .  A
O632       Ni639   1.923       .  S
O632        C642   1.282       .  A
O633       Ni639   1.925       .  S
O633        C643   1.282       .  A
O634        C644   1.281       .  A
O635       Ni640   1.925       .  S
O636       Ni640   1.916       .  S
O636        C643   1.281       .  A
O637       Ni640   1.917       .  S
O637        C642   1.281       .  A
O638       Ni640   1.923       .  S
Ni639      Ni640   2.390       .  S
O645       Ni653   1.916       .  S
O645        C655   1.280       .  A
O646       Ni885   1.907       .  S
O646        C656   1.280       .  A
O647       Ni653   1.924       .  S
O647        C657   1.283       .  A
O648       Ni653   1.919   1_565  S
O648        C658   1.281       .  A
O649       Ni654   1.924       .  S
O649        C658   1.283   1_545  A
O650       Ni654   1.919       .  S
O650        C657   1.281       .  A
O651       Ni654   1.916       .  S
O651        C888   1.280   1_545  A
O652       Ni654   1.907       .  S
O652        C655   1.280       .  A
Ni653       O878   1.907   1_545  S
Ni653      Ni654   2.392       .  S
C656        O883   1.280       .  A
C658        C855   1.472       .  S
O659       Ni665   1.930       .  S
O660        C901   1.264   1_545  A
O661       Ni665   1.922       .  S
O661       Ni683   1.911       .  S
O661       Ni677   1.913       .  S
O661        H684   0.967       .  S
C662        C686   1.436       .  S
C662        O671   1.272       .  A
O663       Ni914   1.930       .  S
O663        C669   1.269       .  A
O664       Ni798   1.908   1_556  S
O664        C666   1.267       .  A
Ni665       O668   1.924       .  S
Ni665       O670   1.908       .  S
C666        C696   1.439       .  S
O667       Ni683   1.916       .  S
O667        C673   1.272       .  A
O668        C673   1.272       .  A
C669        C694   1.432       .  S
C669        O892   1.264       .  A
O670        C672   1.267       .  A
C672        C689   1.439       .  S
C672        O678   1.271       .  A
C673        C687   1.436   1_545  S
H674        O675   0.967       .  S
O675       Ni683   1.913       .  S
O675       Ni677   1.911       .  S
O678       Ni683   1.932       .  S
C680        C691   1.432       .  S
C680        O681   1.264       .  A
Ni682       O895   1.930   1_545  S
Ni682       O780   1.908   1_545  S
C685        C686   1.207       .  T
C687        C920   1.207       .  T
C688        C919   1.207       .  T
C689        C690   1.208       .  T
C691        C692   1.204       .  T
C693        C694   1.204       .  T
C695        C696   1.208       .  T
C697        N698   1.360       .  A
C697        N702   1.358       .  A
C697        C811   1.439       .  S
N698        C699   1.361       .  A
C699        N700   1.358       .  A
C699        C760   1.471       .  S
N700        C701   1.357       .  A
C701        N702   1.358       .  A
C701        C728   1.470       .  S
C703        N704   1.359       .  A
C703        N708   1.358       .  A
C703        C809   1.433       .  S
N704        C705   1.358       .  A
C705        N706   1.352       .  A
C705        C772   1.461       .  S
N706        C707   1.353       .  A
C707        N708   1.358       .  A
C707        C725   1.460       .  S
C709        N710   1.359       .  A
C709        N714   1.358       .  A
C709        C808   1.433       .  S
N710        C711   1.358       .  A
C711        N712   1.352       .  A
C711        C771   1.461       .  S
N712        C713   1.353       .  A
C713        N714   1.358       .  A
C713        C726   1.460       .  S
O715       Ni723   1.915       .  S
O715        C725   1.279       .  A
O716       Ni723   1.906       .  S
O716        C726   1.280       .  A
O717       Ni723   1.922       .  S
O717        C727   1.282       .  A
O718       Ni723   1.917       .  S
O718        C728   1.281       .  A
O719       Ni724   1.922       .  S
O719        C728   1.282       .  A
O720       Ni724   1.917       .  S
O720        C727   1.281       .  A
O721       Ni724   1.915       .  S
O721        C726   1.279       .  A
O722       Ni724   1.906       .  S
O722        C725   1.280       .  A
Ni723      Ni724   2.392       .  S
C727        C731   1.470       .  S
C729        N730   1.358       .  A
C729        N734   1.360       .  A
C729        C806   1.439       .  S
N730        C731   1.358       .  A
C731        N732   1.357       .  A
N732        C733   1.358       .  A
C733        N734   1.361       .  A
C733        C759   1.471       .  S
C735        N736   1.357       .  A
C735        C804   1.437       .  S
N736        C737   1.359       .  A
C737        N738   1.361       .  A
C737        C758   1.470       .  S
N738        C739   1.360       .  A
C741        N742   1.357       .  A
C741        N746   1.357       .  A
C741        C801   1.437       .  S
N742        C743   1.359       .  A
C743        N744   1.361       .  A
C743        C757   1.470       .  S
N744        C745   1.360       .  A
C745        N746   1.358       .  A
C745        C773   1.472       .  S
O747        C757   1.281       .  A
O748       Ni755   1.923       .  S
O748        C758   1.282       .  A
O749       Ni755   1.925       .  S
O749        C759   1.282       .  A
O750        C760   1.281       .  A
O751       Ni756   1.925       .  S
O752       Ni756   1.916       .  S
O752        C759   1.281       .  A
O753       Ni756   1.917       .  S
O753        C758   1.281       .  A
O754       Ni756   1.923       .  S
Ni755      Ni756   2.390       .  S
O761       Ni769   1.916       .  S
O761        C771   1.280       .  A
O762        C772   1.280       .  A
O763       Ni769   1.924       .  S
O763        C773   1.283       .  A
O764       Ni769   1.919       .  S
O764        C774   1.281       .  A
O765       Ni770   1.924       .  S
O765        C774   1.283       .  A
O766       Ni770   1.919       .  S
O766        C773   1.281       .  A
O767       Ni770   1.916       .  S
O768       Ni770   1.907       .  S
O768        C771   1.280       .  A
Ni769      Ni770   2.392       .  S
O775       Ni781   1.930       .  S
O775        C912   1.269   1_554  A
O777       Ni781   1.922       .  S
O777       Ni799   1.911       .  S
O777       Ni793   1.913       .  S
O777        H800   0.967       .  S
C778        C802   1.436       .  S
C778        O787   1.272       .  A
O779        C785   1.269       .  A
O780        C782   1.267       .  A
Ni781       O784   1.924       .  S
Ni781       O786   1.908       .  S
C782        C812   1.439       .  S
O783       Ni799   1.916       .  S
O783        C789   1.272       .  A
O784        C789   1.272       .  A
C785        C810   1.432       .  S
O786        C788   1.267       .  A
O787       Ni914   1.924       .  S
C788        C805   1.439       .  S
C788        O794   1.271       .  A
C789        C803   1.436       .  S
H790        O791   0.967       .  S
O791       Ni799   1.913       .  S
O791       Ni793   1.911       .  S
O792       Ni909   1.932       .  S
Ni793       O908   1.932   1_554  S
Ni793       O913   1.901   1_554  S
Ni793       O911   1.916   1_554  S
O794       Ni799   1.932       .  S
O795       Ni909   1.916       .  S
C796        C807   1.432       .  S
C796        O891   1.269       .  A
C796        O797   1.264       .  A
O797       Ni909   1.901       .  S
Ni798       O903   1.924   1_554  S
C801        C802   1.207       .  T
C805        C806   1.208       .  T
C807        C808   1.204       .  T
C809        C810   1.204       .  T
C811        C812   1.208       .  T
C813        N814   1.360       .  A
C813        N818   1.358       .  A
C813        C927   1.439       .  S
N814        C815   1.361       .  A
C815        N816   1.358       .  A
C815        C876   1.471       .  S
N816        C817   1.357       .  A
C817        N818   1.358       .  A
C817        C844   1.470       .  S
C819        N820   1.359       .  A
C819        N824   1.358       .  A
C819        C925   1.433       .  S
N820        C821   1.358       .  A
C821        N822   1.352       .  A
C821        C888   1.461       .  S
N822        C823   1.353       .  A
C823        N824   1.358       .  A
C823        C841   1.460       .  S
C825        N826   1.359       .  A
C825        N830   1.358       .  A
C825        C924   1.433       .  S
N826        C827   1.358       .  A
C827        N828   1.352       .  A
C827        C887   1.461       .  S
N828        C829   1.353       .  A
C829        N830   1.358       .  A
C829        C842   1.460       .  S
O831       Ni839   1.915       .  S
O831        C841   1.279       .  A
O832       Ni839   1.906       .  S
O832        C842   1.280       .  A
O833       Ni839   1.922       .  S
O833        C843   1.282       .  A
O834       Ni839   1.917       .  S
O834        C844   1.281       .  A
O835       Ni840   1.922       .  S
O835        C844   1.282       .  A
O836       Ni840   1.917       .  S
O836        C843   1.281       .  A
O837       Ni840   1.915       .  S
O837        C842   1.279       .  A
O838       Ni840   1.906       .  S
O838        C841   1.280       .  A
Ni839      Ni840   2.392       .  S
C843        C847   1.470       .  S
C845        N846   1.358       .  A
C845        N850   1.360       .  A
C845        C922   1.439       .  S
N846        C847   1.358       .  A
C847        N848   1.357       .  A
N848        C849   1.358       .  A
C849        N850   1.361       .  A
C849        C875   1.471       .  S
C851        N852   1.357       .  A
C851        C920   1.437       .  S
N852        C853   1.359       .  A
C853        N854   1.361       .  A
C853        C874   1.470       .  S
N854        C855   1.360       .  A
C857        N858   1.357       .  A
C857        N862   1.357       .  A
C857        C917   1.437       .  S
N858        C859   1.359       .  A
C859        N860   1.361       .  A
C859        C873   1.470       .  S
N860        C861   1.360       .  A
C861        N862   1.358       .  A
C861        C889   1.472       .  S
O863        C873   1.281       .  A
O864       Ni871   1.923       .  S
O864        C874   1.282       .  A
O865       Ni871   1.925       .  S
O865        C875   1.282       .  A
O866        C876   1.281       .  A
O867       Ni872   1.925       .  S
O868       Ni872   1.916       .  S
O868        C875   1.281       .  A
O869       Ni872   1.917       .  S
O869        C874   1.281       .  A
O870       Ni872   1.923       .  S
Ni871      Ni872   2.390       .  S
O877       Ni885   1.916       .  S
O877        C887   1.280       .  A
O878        C888   1.280       .  A
O879       Ni885   1.924       .  S
O879        C889   1.283       .  A
O880       Ni885   1.919       .  S
O880        C890   1.281       .  A
O881       Ni886   1.924       .  S
O881        C890   1.283       .  A
O882       Ni886   1.919       .  S
O882        C889   1.281       .  A
O883       Ni886   1.916       .  S
O884       Ni886   1.907       .  S
O884        C887   1.280       .  A
Ni885      Ni886   2.392       .  S
O891       Ni897   1.930       .  S
O893       Ni897   1.922       .  S
O893       Ni915   1.911       .  S
O893       Ni909   1.913       .  S
O893        H916   0.967       .  S
C894        C918   1.436       .  S
C894        O903   1.272       .  A
O895        C901   1.269       .  A
O896        C898   1.267       .  A
Ni897       O900   1.924       .  S
Ni897       O902   1.908       .  S
C898        C928   1.439       .  S
O899       Ni915   1.916       .  S
O899        C905   1.272       .  A
O900        C905   1.272       .  A
C901        C926   1.432       .  S
O902        C904   1.267       .  A
C904        C921   1.439       .  S
C904        O910   1.271       .  A
C905        C919   1.436       .  S
H906        O907   0.967       .  S
O907       Ni915   1.913       .  S
O907       Ni909   1.911       .  S
O910       Ni915   1.932       .  S
C912        C923   1.432       .  S
C912        O913   1.264       .  A
C917        C918   1.207       .  T
C921        C922   1.208       .  T
C923        C924   1.204       .  T
C925        C926   1.204       .  T
C927        C928   1.208       .  T
