geometry optimzed in LAMMPS
_audit_creation_date              2020-11-30 
_audit_creation_method            'lammps2cif' 
_symmetry_space_group_name_H-M    'P1' 
_symmetry_Int_Tables_number       1 
_symmetry_cell_setting            triclinic 
loop_ 
_symmetry_equiv_pos_as_xyz 
  x,y,z 
_cell_length_a                    52.40538534 
_cell_length_b                    52.37294615163907 
_cell_length_c                    46.15557618182755 
_cell_angle_alpha                 89.95407369710234 
_cell_angle_beta                  89.9395794108186 
_cell_angle_gamma                 120.11794869218204 
loop_ 
_atom_site_label 
_atom_site_type_symbol 
_atom_site_fract_x 
_atom_site_fract_y 
_atom_site_fract_z 
_atom_site_charge 
C1          C  0.28757276  0.28744729  0.00714950     0.80700
N2          N  0.30073200  0.30336705  0.03133353    -0.77600
C3          C  0.32641763  0.32937947  0.02961030     0.83200
N4          N  0.33975071  0.33920760  0.50345267    -0.77500
C5          C  0.32738646  0.32357785  0.47895038     0.83300
N6          N  0.30137480  0.29759368  0.48089251    -0.79200
C7          C  0.69513436  0.68894097  0.00424374     0.80700
N8          N  0.68316562  0.67802254  0.03079661    -0.77600
C9          C  0.65713549  0.65214283  0.03317632     0.83200
N10         N  0.64304736  0.63721760  0.50864444    -0.77500
C11         C  0.65469368  0.64773846  0.48216768     0.83300
N12         N  0.68073873  0.67336774  0.48002794    -0.79200
N13         N  0.49575425  0.48793896  0.21101657    -0.36100
N14         N  0.53298199  0.52490174  0.25776516    -0.56700
N15         N  0.49374260  0.48059626  0.29951829    -0.36100
N16         N  0.45451224  0.44568542  0.25301172    -0.56700
C17         C  0.51406942  0.51292258  0.19634395     0.27500
C18         C  0.47211933  0.47170090  0.19390228     0.27500
C19         C  0.51049733  0.50360720  0.31717733     0.27500
C20         C  0.46937140  0.46161425  0.31465106     0.27500
C21         C  0.55101362  0.53904496  0.23517950     0.36100
C22         C  0.54951057  0.53563994  0.28188731     0.36100
C23         C  0.44202662  0.43071859  0.22843115     0.36100
C24         C  0.44127312  0.42652983  0.27505229     0.36100
C25         C  0.50212151  0.51241920  0.16941783    -0.21400
C26         C  0.47560284  0.48640620  0.16789057    -0.21400
C27         C  0.49675847  0.49907991  0.34389990    -0.21400
C28         C  0.47088657  0.47250244  0.34236677    -0.21400
C29         C  0.57903298  0.55914607  0.24497276    -0.22400
C30         C  0.57809229  0.55696448  0.27463430    -0.22400
C31         C  0.42045475  0.40196883  0.23488143    -0.22400
C32         C  0.41999757  0.39931167  0.26450136    -0.22400
C33         C  0.54201350  0.53532182  0.20598806    -0.17800
C34         C  0.44836371  0.44324633  0.20044689    -0.17800
C35         C  0.44649399  0.43409796  0.30458989    -0.17800
C36         C  0.53864548  0.52774084  0.31040983    -0.17800
H37         H  0.51160907  0.52897079  0.15253057     0.15100
H38         H  0.46073704  0.47903775  0.14956484     0.15100
H39         H  0.50469795  0.51331808  0.36268600     0.15100
H40         H  0.45507318  0.46235534  0.35977830     0.15100
H41         H  0.59806763  0.57399444  0.23211375     0.13400
H42         H  0.59630179  0.56975745  0.28919135     0.13400
H43         H  0.40623566  0.38484459  0.21985919     0.13400
H44         H  0.40533678  0.37978528  0.27686797     0.13400
H45         H  0.50000581  0.48153398  0.23076307     0.26700
H46         H  0.49946090  0.47721320  0.27900875     0.26700
C47         C  0.68969141  0.98637189  0.50164867     0.80700
N48         N  0.67601980  0.98605682  0.02674916    -0.77600
C49         C  0.64899201  0.98384385  0.02629880     0.83200
N50         N  0.63586447  0.98196154  0.50051344    -0.77500
C51         C  0.64946959  0.98287114  0.47525015     0.83300
N52         N  0.67638899  0.98505455  0.47594809    -0.79200
C53         C  0.27457678  0.96893591  0.50140979     0.80700
N54         N  0.28585859  0.96838048  0.02770675    -0.77600
C55         C  0.31007251  0.96523539  0.02978829     0.83200
N56         N  0.32269650  0.96240123  0.50525297    -0.77500
C57         C  0.31193344  0.96335418  0.47885418     0.83300
N58         N  0.28809458  0.96693636  0.47706587    -0.79200
N59         N  0.48125412  0.98160339  0.20797677    -0.36100
N60         N  0.52231149  0.98051710  0.25032772    -0.56700
N61         N  0.48405361  0.97869498  0.29696092    -0.36100
N62         N  0.44093635  0.97537276  0.25460604    -0.56700
C63         C  0.49966609  0.97784495  0.19020740     0.27500
C64         C  0.45675713  0.97511078  0.19255536     0.27500
C65         C  0.50302250  0.97326023  0.31192821     0.27500
C66         C  0.46041359  0.97103154  0.31421267     0.27500
C67         C  0.53867718  0.98552494  0.22613065     0.36100
C68         C  0.54003682  0.98378686  0.27296939     0.36100
C69         C  0.42665498  0.97928569  0.23219876     0.36100
C70         C  0.42847006  0.97836298  0.27903744     0.36100
C71         C  0.48693910  0.96946168  0.16297361    -0.21400
C72         C  0.45987809  0.96764131  0.16448684    -0.21400
C73         C  0.49145129  0.96237095  0.33916691    -0.21400
C74         C  0.46453377  0.96085892  0.34056739    -0.21400
C75         C  0.56683664  0.99155277  0.23343658    -0.22400
C76         C  0.56770758  0.99051391  0.26312867    -0.22400
C77         C  0.40476272  0.98441801  0.24240485    -0.22400
C78         C  0.40600063  0.98398137  0.27210079    -0.22400
C79         C  0.52801802  0.98261656  0.19748475    -0.17800
C80         C  0.43211178  0.97682697  0.20265319    -0.17800
C81         C  0.43587991  0.97434712  0.30746977    -0.17800
C82         C  0.53108055  0.97907044  0.30228881    -0.17800
H83         H  0.49613813  0.96506737  0.14390218     0.15100
H84         H  0.44430773  0.96157997  0.14684099     0.15100
H85         H  0.50137906  0.95618964  0.35631885     0.15100
H86         H  0.44975337  0.95329643  0.35900850     0.15100
H87         H  0.58477591  0.99584056  0.21889350     0.13400
H88         H  0.58641594  0.99387050  0.27596544     0.13400
H89         H  0.38947396  0.98804672  0.22977369     0.13400
H90         H  0.39180210  0.98719402  0.28686934     0.13400
H91         H  0.48575811  0.98945573  0.22901101     0.26700
H92         H  0.48774138  0.98868136  0.27681784     0.26700
C93         C  0.98774837  0.28765921  0.99420551     0.80700
N94         N  0.98844321  0.30250909  0.46964813    -0.77600
C95         C  0.98965042  0.32897947  0.47113959     0.83200
N96         N  0.98996777  0.34049162  0.99748976    -0.77500
C97         C  0.98972893  0.32654334  0.02232899     0.83300
N98         N  0.98861559  0.29998238  0.02058043    -0.79200
C99         C  0.97368777  0.68649609  0.99706830     0.80700
N100        N  0.96965711  0.66978477  0.02102983    -0.77600
C101        C  0.96500291  0.64195359  0.01865788     0.83200
N102        N  0.96486964  0.63113310  0.99202480    -0.77500
C103        C  0.96880670  0.64734264  0.46779428     0.83300
N104        N  0.97316011  0.67515737  0.47034129    -0.79200
N105        N  0.97857062  0.48955346  0.28980225    -0.36100
N106        N  0.98093696  0.44888966  0.24737040    -0.56700
N107        N  0.97668412  0.48385088  0.20086418    -0.36100
N108        N  0.96957668  0.52166780  0.24337553    -0.56700
C109        C  0.97623165  0.46795050  0.30759416     0.27500
C110        C  0.97143574  0.50697892  0.30540844     0.27500
C111        C  0.97409325  0.46054773  0.18565451     0.27500
C112        C  0.96744153  0.49845023  0.18356250     0.27500
C113        C  0.98739226  0.43895031  0.27170861     0.36100
C114        C  0.98729387  0.43651886  0.22483386     0.36100
C115        C  0.97233632  0.53966189  0.26560544     0.36100
C116        C  0.97053916  0.53619576  0.21885871     0.36100
C117        C  0.96777280  0.47188832  0.33498204    -0.21400
C118        C  0.96496924  0.49660862  0.33364923    -0.21400
C119        C  0.96333687  0.46053407  0.15821575    -0.21400
C120        C  0.95911551  0.48441695  0.15690642    -0.21400
C121        C  0.99755786  0.41987298  0.26459298    -0.22400
C122        C  0.99749651  0.41834301  0.23488889    -0.22400
C123        C  0.97437886  0.56544790  0.25520565    -0.22400
C124        C  0.97333611  0.56330171  0.22557852    -0.22400
C125        C  0.98295180  0.44565766  0.30031401    -0.17800
C126        C  0.97180996  0.53268896  0.29522320    -0.17800
C127        C  0.96783991  0.52499963  0.19048143    -0.17800
C128        C  0.98242174  0.44008742  0.19537529    -0.17800
H129        H  0.96428366  0.45852935  0.35409690     0.15100
H130        H  0.95886837  0.50586666  0.35149400     0.15100
H131        H  0.95908740  0.44500863  0.14086630     0.15100
H132        H  0.95099862  0.49083442  0.13834350     0.15100
H133        H  0.00425965  0.40820412  0.27927737     0.13400
H134        H  0.00400527  0.40519327  0.22216541     0.13400
H135        H  0.97633394  0.58385760  0.26764398     0.13400
H136        H  0.97440518  0.57980138  0.21070816     0.13400
H137        H  0.98615321  0.49308441  0.26868480     0.26700
H138        H  0.98590570  0.49050730  0.22120666     0.26700
O139        O  0.95103085  0.93891631  0.01733123    -0.87800
C140        C  0.01339562  0.96161149  0.45412335     0.88200
Mg141      Mg  0.91725305  0.95060699  0.01469169     1.58100
O142        O  0.03912928  0.00354469  0.01797762    -0.87600
O143        O  0.98660656  0.94521335  0.04644959    -0.74900
C144        C  0.98670716  0.09355762  0.48225390     0.93300
O145        O  0.94439329  0.94521849  0.44898296    -0.74700
O146        O  0.96248028  0.06966393  0.47806295    -0.82200
Mg147      Mg  0.95711987  0.91861766  0.47938354     1.58000
C148        C  0.09267833  0.09514986  0.01143725     0.93200
O149        O  0.96747520  0.88692705  0.00467631    -0.80500
H150        H  0.04623077  0.00627598  0.06068819    -0.05800
C151        C  0.01732445  0.04178147  0.45265763     0.88100
O152        O  0.94389376  0.99105792  0.04388489    -0.75000
O153        O  0.00259986  0.95244162  0.47835532    -0.87700
O154        O  0.09184662  0.07146007  0.00336746    -0.80600
C155        C  0.09385525  0.99064676  0.48524818     0.93300
C156        C  0.98997174  0.88612881  0.01393103     0.93100
Mg157      Mg  0.02067011  0.06111791  0.01517076     1.58000
O158        O  0.00970456  0.09328555  0.49098711    -0.80500
O159        O  0.03308299  0.03415742  0.04535068    -0.74700
O160        O  0.06999718  0.96850627  0.49419400    -0.80600
O161        O  0.90932457  0.88299425  0.48035382    -0.82300
O162        O  0.90715908  0.01066925  0.99990375    -0.80600
C163        C  0.04009978  0.01441319  0.04196776     0.87600
O164        O  0.97492827  0.02716365  0.01595976    -0.87700
O165        O  0.02653095  0.04080719  0.47702460    -0.87800
O166        O  0.99058279  0.03448971  0.44839100    -0.74900
Mg167      Mg  0.02708509  0.95789637  0.01773398     1.58000
O168        O  0.09574019  0.01556351  0.48079767    -0.82300
H169        H  0.94485402  0.93165575  0.05996302    -0.06000
O170        O  0.93819708  0.97567671  0.47645100    -0.87500
H171        H  0.93097933  0.97293870  0.43375043    -0.05800
H172        H  0.97167387  0.03254066  0.05841007    -0.06000
C173        C  0.93724446  0.96486732  0.45242657     0.87600
C174        C  0.95993543  0.93796326  0.04184992     0.88100
C175        C  0.96376488  0.01779556  0.04002412     0.88200
H176        H  0.03220991  0.04817502  0.43437392    -0.06000
O177        O  0.03310643  0.98833372  0.44992032    -0.75000
Mg178      Mg  0.95011780  0.02144855  0.47730030     1.58000
H179        H  0.00517695  0.94671608  0.43586424    -0.06000
C180        C  0.88545142  0.88339284  0.48383040     0.93200
O181        O  0.88169610  0.96320615  0.01212123    -0.82200
C182        C  0.88323103  0.98796945  0.00796000     0.93200
O183        O  0.01459212  0.90965271  0.01779776    -0.82200
Mg184      Mg  0.06013831  0.02858019  0.47908885     1.58200
O185        O  0.88555664  0.90688643  0.49138458    -0.80500
O186        O  0.06917648  0.09645247  0.01456353    -0.82200
C187        C  0.96744119  0.75450679  0.48420869    -0.01500
C188        C  0.98372505  0.77285095  0.00749195     0.07100
C189        C  0.99780601  0.76318787  0.02672165    -0.07500
C190        C  0.99551125  0.73554881  0.02331847     0.04500
C191        C  0.97860837  0.71681537  0.00030597    -0.14700
C192        C  0.96513688  0.72684879  0.48072897    -0.08000
C193        C  0.98595237  0.80197635  0.01239876     0.05500
C194        C  0.96012717  0.80307355  0.01750251    -0.09100
C195        C  0.96090730  0.83012720  0.01996022     0.00500
C196        C  0.98811572  0.85693752  0.01760898     0.00300
C197        C  0.01435321  0.85567061  0.51490368    -0.12700
C198        C  0.01348234  0.82865935  0.51170311     0.00800
C199        C  0.93346479  0.82951546  0.02528744     0.40100
C200        C  0.04070922  0.82896788  0.50577592     0.36700
C201        C  0.95278652  0.76354800  0.46360098     0.36500
C202        C  0.01162414  0.72760155  0.04324160     0.37200
N203        N  0.91141241  0.82884099  0.02979965    -0.43600
N204        N  0.06252672  0.82929343  0.50083354    -0.44000
N205        N  0.02483164  0.72167490  0.05927305    -0.41400
N206        N  0.94096542  0.77081843  0.44719946    -0.42800
H207        H  0.95199102  0.71266712  0.46311721     0.13300
H208        H  0.01050029  0.77725911  0.04460330     0.09800
H209        H  0.93915493  0.78264415  0.01897725     0.10900
H210        H  0.03546725  0.87582780  0.51388925     0.16700
C211        C  0.98177027  0.60059588  0.41423193    -0.01500
C212        C  0.97333247  0.60735206  0.38768011     0.07100
C213        C  0.96381741  0.62808379  0.38707571    -0.07500
C214        C  0.96261975  0.64207473  0.41264019     0.04500
C215        C  0.97067953  0.63490464  0.43941867    -0.14700
C216        C  0.98039341  0.61426619  0.43960566    -0.08000
C217        C  0.97311660  0.59160090  0.36090463     0.05500
C218        C  0.94603499  0.56902348  0.35033799    -0.09100
C219        C  0.94512705  0.55013025  0.32836543     0.00500
C220        C  0.97164301  0.55355247  0.31698472     0.00300
C221        C  0.99867285  0.57702205  0.32653325    -0.12700
C222        C  0.99958269  0.59617253  0.34818215     0.00800
C223        C  0.91687427  0.52694665  0.31827122     0.40100
C224        C  0.02785824  0.62008673  0.35739317     0.36700
C225        C  0.99121411  0.57903864  0.41613582     0.36500
C226        C  0.95205080  0.66271238  0.41077664     0.37200
N227        N  0.89424385  0.50839451  0.31007123    -0.43600
N228        N  0.05048934  0.63933518  0.36473556    -0.44000
N229        N  0.94358449  0.67925689  0.40907306    -0.41400
N230        N  0.99883414  0.56181895  0.41764880    -0.42800
H231        H  0.98696835  0.60860363  0.45977860     0.13300
H232        H  0.95711936  0.63314282  0.36664656     0.09800
H233        H  0.92564560  0.56547710  0.36003670     0.10900
H234        H  0.01907001  0.58007005  0.31732795     0.16700
C235        C  0.99127749  0.57572367  0.12561824    -0.01500
C236        C  0.96561341  0.57709798  0.11970900     0.07100
C237        C  0.94052197  0.56134445  0.13715896    -0.07500
C238        C  0.94076685  0.54431246  0.16042062     0.04500
C239        C  0.96636949  0.54274402  0.16614812    -0.14700
C240        C  0.99145078  0.55855662  0.14871839    -0.08000
C241        C  0.96419199  0.59392145  0.09467094     0.05500
C242        C  0.94853815  0.57839147  0.07006078    -0.09100
C243        C  0.94800443  0.59336696  0.04515556     0.00500
C244        C  0.96292091  0.62465249  0.04494155     0.00300
C245        C  0.97776695  0.63999037  0.07011901    -0.12700
C246        C  0.97887438  0.62496278  0.09468872     0.00800
C247        C  0.93194490  0.57588460  0.02036465     0.40100
C248        C  0.99579536  0.64185970  0.11938348     0.36700
C249        C  0.01744835  0.59133830  0.10796282     0.36500
C250        C  0.91460028  0.52855858  0.17803720     0.37200
N251        N  0.91867766  0.56187034  0.50092638    -0.43600
N252        N  0.00961047  0.65547778  0.13902698    -0.44000
N253        N  0.89367768  0.51603190  0.19225450    -0.41400
N254        N  0.03842127  0.60393110  0.09382536    -0.42800
H255        H  0.01116814  0.55741741  0.15321944     0.13300
H256        H  0.92076420  0.56236588  0.13254014     0.09800
H257        H  0.93725898  0.55445385  0.07012566     0.10900
H258        H  0.98947288  0.66387333  0.07035312     0.16700
C259        C  0.99481195  0.22487578  0.46086276    -0.01500
C260        C  0.98593042  0.20426034  0.48362374     0.07100
C261        C  0.97685886  0.21062434  0.00997292    -0.07500
C262        C  0.97698314  0.23729547  0.01407355     0.04500
C263        C  0.98694834  0.25867915  0.49149346    -0.14700
C264        C  0.99535515  0.25166839  0.46495247    -0.08000
C265        C  0.98591829  0.17591225  0.48048163     0.05500
C266        C  0.01289060  0.17641427  0.97875591    -0.09100
C267        C  0.01391075  0.15011956  0.97768399     0.00500
C268        C  0.98732713  0.12234468  0.47892175     0.00300
C269        C  0.96033060  0.12220233  0.47898425    -0.12700
C270        C  0.95947450  0.14854318  0.47968941     0.00800
C271        C  0.04247391  0.15245847  0.97531485     0.40100
C272        C  0.93118260  0.14700185  0.47933276     0.36700
C273        C  0.00261045  0.21860925  0.43280977     0.36500
C274        C  0.96575564  0.24135989  0.04118640     0.37200
N275        N  0.06541541  0.15446113  0.97321169    -0.43600
N276        N  0.90853523  0.14581994  0.47885531    -0.44000
N277        N  0.95651392  0.24432433  0.06291850    -0.41400
N278        N  0.00866165  0.21349455  0.41027344    -0.42800
H279        H  0.00244871  0.26715740  0.44712768     0.13300
H280        H  0.96955975  0.19456679  0.02740926     0.09800
H281        H  0.03328975  0.19748539  0.97873402     0.10900
H282        H  0.93965540  0.10141289  0.47930613     0.16700
C283        C  0.01453049  0.41507033  0.13540922    -0.01500
C284        C  0.99051361  0.38702646  0.12844113     0.07100
C285        C  0.96451719  0.37563777  0.14487827    -0.07500
C286        C  0.96185476  0.39216907  0.16735743     0.04500
C287        C  0.98534391  0.42079138  0.17340286    -0.14700
C288        C  0.01173377  0.43177512  0.15765577    -0.08000
C289        C  0.99046145  0.37117089  0.10168757     0.05500
C290        C  0.00059821  0.35092321  0.10220630    -0.09100
C291        C  0.00039266  0.33571354  0.07692956     0.00500
C292        C  0.98961262  0.34056492  0.05055872     0.00300
C293        C  0.97936993  0.36085205  0.05050844    -0.12700
C294        C  0.97988475  0.37611527  0.07552798     0.00800
C295        C  0.01253643  0.31639002  0.07853096     0.40100
C296        C  0.96974400  0.39714066  0.07380881     0.36700
C297        C  0.04192592  0.42738523  0.11951856     0.36500
C298        C  0.93453955  0.37974829  0.18337785     0.37200
N299        N  0.02241927  0.30101146  0.07988845    -0.43600
N300        N  0.96175747  0.41408799  0.07252515    -0.44000
N301        N  0.91266136  0.36973120  0.19628156    -0.41400
N302        N  0.06396797  0.43722516  0.10691040    -0.42800
H303        H  0.02995796  0.45365039  0.16243520     0.13300
H304        H  0.94593122  0.35417977  0.13948021     0.09800
H305        H  0.00894745  0.34723435  0.12231750     0.10900
H306        H  0.97091792  0.36503050  0.03072303     0.16700
C307        C  0.97595828  0.37971819  0.42345726    -0.01500
C308        C  0.98661255  0.37689099  0.39639562     0.07100
C309        C  0.99824915  0.35810391  0.39353628    -0.07500
C310        C  0.99955996  0.34217414  0.41736354     0.04500
C311        C  0.98874582  0.34479576  0.44469687    -0.14700
C312        C  0.97702996  0.36373781  0.44722833    -0.08000
C313        C  0.98609554  0.39375011  0.37092905     0.05500
C314        C  0.00894109  0.42298518  0.36732348    -0.09100
C315        C  0.00860473  0.44001599  0.34411222     0.00500
C316        C  0.98491962  0.42780337  0.32434081     0.00300
C317        C  0.96229266  0.39839699  0.32773714    -0.12700
C318        C  0.96278062  0.38129479  0.35080886     0.00800
C319        C  0.03272998  0.46990220  0.34086180     0.40100
C320        C  0.93899359  0.35120501  0.35374096     0.36700
C321        C  0.96374547  0.39883870  0.42726967     0.36500
C322        C  0.01346839  0.32466793  0.41314784     0.37200
N323        N  0.05202661  0.49386253  0.33813856    -0.43600
N324        N  0.91997186  0.32706181  0.35611176    -0.44000
N325        N  0.02493533  0.31099703  0.40919769    -0.41400
N326        N  0.95397303  0.41416856  0.43031415    -0.42800
H327        H  0.96848583  0.36604639  0.46786651     0.13300
H328        H  0.00671035  0.35622754  0.37266795     0.09800
H329        H  0.02694282  0.43249994  0.38276394     0.10900
H330        H  0.94410852  0.38896503  0.31249869     0.16700
C331        C  0.22060394  0.98915468  0.46869961    -0.01500
C332        C  0.19895891  0.98044856  0.49047320     0.07100
C333        C  0.20188309  0.96754183  0.01589699    -0.07500
C334        C  0.22621254  0.96361754  0.02008063     0.04500
C335        C  0.24836735  0.97282644  0.49859237    -0.14700
C336        C  0.24504724  0.98551078  0.47295503    -0.08000
C337        C  0.17250180  0.98361969  0.48674155     0.05500
C338        C  0.14482171  0.95811391  0.48408809    -0.09100
C339        C  0.11909059  0.95985740  0.48173487     0.00500
C340        C  0.12067106  0.98770382  0.48241599     0.00300
C341        C  0.14870403  0.01327950  0.48374688    -0.12700
C342        C  0.17429538  0.01134438  0.98634579     0.00800
C343        C  0.09157097  0.93263954  0.47795677     0.40100
C344        C  0.20221660  0.03822478  0.98995024     0.36700
C345        C  0.21763628  0.00089953  0.44139761     0.36500
C346        C  0.22693281  0.94862239  0.04605779     0.37200
N347        N  0.06959522  0.91081690  0.47453462    -0.43600
N348        N  0.22457452  0.05976693  0.99296808    -0.44000
N349        N  0.22736742  0.93644088  0.06682031    -0.41400
N350        N  0.21514147  0.01019520  0.41949729    -0.42800
H351        H  0.26156015  0.99255348  0.45598903     0.13300
H352        H  0.18498240  0.96031736  0.03250341     0.09800
H353        H  0.14333440  0.93668975  0.48394696     0.10900
H354        H  0.15045303  0.03472196  0.98441810     0.16700
C355        C  0.36865081  0.94577714  0.35594313    -0.01500
C356        C  0.37882700  0.96740178  0.37782875     0.07100
C357        C  0.40752881  0.99169288  0.37625817    -0.07500
C358        C  0.42623652  0.99452631  0.35331595     0.04500
C359        C  0.41630539  0.97256468  0.33170137    -0.14700
C360        C  0.38749484  0.94835648  0.33320937    -0.08000
C361        C  0.35997324  0.96511763  0.40269371     0.05500
C362        C  0.35555755  0.94519946  0.42505419    -0.09100
C363        C  0.33934544  0.94367710  0.44977686     0.00500
C364        C  0.32721741  0.96237573  0.45227495     0.00300
C365        C  0.33081812  0.98153583  0.42930787    -0.12700
C366        C  0.34721949  0.98315510  0.40471904     0.00800
C367        C  0.33481651  0.92217022  0.47178135     0.40100
C368        C  0.35085387  0.00353384  0.38184234     0.36700
C369        C  0.33875202  0.92129648  0.35599534     0.36500
C370        C  0.45538560  0.02024570  0.35215503     0.37200
N371        N  0.33112516  0.90479215  0.48927435    -0.43600
N372        N  0.35384499  0.01982375  0.36342975    -0.44000
N373        N  0.47875970  0.04082749  0.35114694    -0.41400
N374        N  0.31470200  0.90181457  0.35590897    -0.42800
H375        H  0.37974302  0.93156530  0.31650115     0.13300
H376        H  0.41526688  0.00845250  0.39300193     0.09800
H377        H  0.36511939  0.93107418  0.42329762     0.10900
H378        H  0.32153687  0.99591069  0.43092548     0.16700
C379        C  0.35622043  0.95247901  0.08470774    -0.01500
C380        C  0.35337388  0.96604977  0.10983181     0.07100
C381        C  0.33529766  0.97870906  0.10916096    -0.07500
C382        C  0.32033092  0.97827762  0.08372236     0.04500
C383        C  0.32323159  0.96469636  0.05832376    -0.14700
C384        C  0.34103054  0.95160786  0.05951803    -0.08000
C385        C  0.37118784  0.96926371  0.13602135     0.05500
C386        C  0.39684788  0.99644491  0.14098262    -0.09100
C387        C  0.41654100  0.99947509  0.16301315     0.00500
C388        C  0.41040269  0.97514510  0.18079970     0.00300
C389        C  0.38417180  0.94824148  0.17658452    -0.12700
C390        C  0.36468302  0.94507154  0.15423353     0.00800
C391        C  0.44341208  0.02742051  0.16642689     0.40100
C392        C  0.33862751  0.91664095  0.14981950     0.36700
C393        C  0.37598124  0.94077576  0.08377467     0.36500
C394        C  0.30383054  0.99356388  0.08402073     0.37200
N395        N  0.46505332  0.04974933  0.16912972    -0.43600
N396        N  0.31781240  0.89379746  0.14625574    -0.44000
N397        N  0.29078777  0.00601240  0.08435922    -0.41400
N398        N  0.39202026  0.93165324  0.08297418    -0.42800
H399        H  0.34377133  0.94117840  0.04042998     0.13300
H400        H  0.33354185  0.98966546  0.12835827     0.09800
H401        H  0.40206838  0.01499665  0.12684677     0.10900
H402        H  0.37945353  0.92946611  0.19017534     0.16700
C403        C  0.82930523  0.01496246  0.49557900    -0.01500
C404        C  0.80346265  0.99286877  0.00740332     0.07100
C405        C  0.80455658  0.97089646  0.02376467    -0.07500
C406        C  0.83052692  0.96947049  0.02542705     0.04500
C407        C  0.85609835  0.99031640  0.01023948    -0.14700
C408        C  0.85503909  0.01297035  0.99471877    -0.08000
C409        C  0.77513451  0.99265387  0.00533771     0.05500
C410        C  0.75581472  0.97731247  0.48273480    -0.09100
C411        C  0.72819811  0.97536954  0.48065630     0.00500
C412        C  0.71926949  0.98859216  0.00204699     0.00300
C413        C  0.73869510  0.00367897  0.02500658    -0.12700
C414        C  0.76644316  0.00590496  0.02668965     0.00800
C415        C  0.70941910  0.95891215  0.45670278     0.40100
C416        C  0.78583410  0.02204275  0.05036806     0.36700
C417        C  0.82989531  0.03949354  0.48065147     0.36500
C418        C  0.83025206  0.94669444  0.04328576     0.37200
N419        N  0.69446550  0.94577337  0.43743522    -0.43600
N420        N  0.80157585  0.03505182  0.06920372    -0.44000
N421        N  0.82992032  0.92846402  0.05774100    -0.41400
N422        N  0.83047115  0.05921682  0.46871378    -0.42800
H423        H  0.87499179  0.03078663  0.48674789     0.13300
H424        H  0.78491944  0.95465785  0.03512068     0.09800
H425        H  0.76245132  0.96682393  0.46648483     0.10900
H426        H  0.73236237  0.01406955  0.04156082     0.16700
C427        C  0.58780781  0.96227725  0.42150828    -0.01500
C428        C  0.60308592  0.97813738  0.39654767     0.09700
C429        C  0.63397550  0.99539272  0.39729016    -0.07500
C430        C  0.64972125  0.99693966  0.42244453     0.04500
C431        C  0.63440014  0.98092389  0.44744932    -0.14700
C432        C  0.60347113  0.96364499  0.44651975    -0.08000
C433        C  0.58693574  0.97863856  0.37032356     0.05500
C434        C  0.58698018  0.00476172  0.36346663    -0.09100
C435        C  0.56942599  0.00540923  0.34096053     0.00500
C436        C  0.55198953  0.97978537  0.32448937     0.00300
C437        C  0.55277734  0.95394471  0.33056102    -0.12700
C438        C  0.56992547  0.95312635  0.35343868     0.00800
C439        C  0.56867918  0.03221566  0.33581244     0.40100
C440        C  0.56913157  0.92572747  0.35972492     0.36700
C441        C  0.55596456  0.94551395  0.42238584     0.36500
C442        C  0.68127350  0.01656121  0.42254603     0.37200
N443        N  0.56788317  0.05361013  0.33174801    -0.43600
N444        N  0.56830298  0.90371587  0.36499145    -0.44000
N445        N  0.70654240  0.03240744  0.42275102    -0.41400
N446        N  0.53045093  0.93212901  0.42300398    -0.42800
H447        H  0.59137674  0.95141072  0.46558270     0.13300
H448        H  0.64573912  0.00812393  0.37832289     0.09800
H449        H  0.59984389  0.02435024  0.37649963     0.10900
H450        H  0.53922347  0.93417617  0.31800580     0.16700
C451        C  0.58531365  0.96924800  0.07568758    -0.01500
C452        C  0.59952175  0.98250243  0.10188734     0.07100
C453        C  0.63025403  0.99527679  0.10381197    -0.07500
C454        C  0.64699410  0.99548746  0.07993807     0.04500
C455        C  0.63284425  0.98272256  0.05334883    -0.14700
C456        C  0.60190578  0.96944331  0.05188014    -0.08000
C457        C  0.58250261  0.98315327  0.12737073     0.05500
C458        C  0.56152395  0.95634242  0.14005477    -0.09100
C459        C  0.54383492  0.95584286  0.16301182     0.00500
C460        C  0.54700088  0.98249561  0.17360993     0.00300
C461        C  0.56826193  0.00936166  0.16135203    -0.12700
C462        C  0.58606533  0.00990091  0.13841129     0.00800
C463        C  0.52220017  0.92778169  0.17514034     0.40100
C464        C  0.60719372  0.03804286  0.12603277     0.36700
C465        C  0.55376435  0.95604543  0.07240677     0.36500
C466        C  0.67857043  0.00989479  0.08337207     0.37200
N467        N  0.50474278  0.90536963  0.18491609    -0.43600
N468        N  0.62417353  0.06062573  0.11618605    -0.44000
N469        N  0.70384539  0.02154972  0.08663411    -0.41400
N470        N  0.52848832  0.94543013  0.06981415    -0.42800
H471        H  0.59045432  0.95926475  0.03189351     0.13300
H472        H  0.64121421  0.00531621  0.12403888     0.09800
H473        H  0.55878423  0.93574474  0.13175858     0.10900
H474        H  0.57073482  0.02987034  0.16959737     0.16700
C475        C  0.83157641  0.80120018  0.48631293    -0.01500
C476        C  0.80411397  0.79993051  0.48681808     0.07100
C477        C  0.80310652  0.82601508  0.48344789    -0.07500
C478        C  0.82911456  0.85341059  0.48059055     0.04500
C479        C  0.85691729  0.85499477  0.48151815    -0.14700
C480        C  0.85752871  0.82844887  0.48344906    -0.08000
C481        C  0.77624150  0.77158065  0.49113356     0.05500
C482        C  0.76162957  0.76603489  0.01782525    -0.09100
C483        C  0.73540091  0.73935200  0.02295491     0.00500
C484        C  0.72332703  0.71742391  0.50087854     0.00300
C485        C  0.73812201  0.72364672  0.47400691    -0.12700
C486        C  0.76418327  0.75034380  0.46901756     0.00800
C487        C  0.72113571  0.73574460  0.05065055     0.40100
C488        C  0.77793657  0.75570653  0.44083256     0.36700
C489        C  0.83375792  0.77495564  0.48988177     0.36500
C490        C  0.82640661  0.87928099  0.97593534     0.37200
N491        N  0.70986453  0.73313573  0.07290143    -0.43600
N492        N  0.78894531  0.76002785  0.41823739    -0.44000
N493        N  0.82410654  0.89990268  0.97228945    -0.41400
N494        N  0.83557795  0.75397359  0.49275945    -0.42800
H495        H  0.87843499  0.82893278  0.48387327     0.13300
H496        H  0.78189949  0.82495540  0.98280950     0.09800
H497        H  0.77075385  0.78264193  0.03471205     0.10900
H498        H  0.72935911  0.70762218  0.45660686     0.16700
C499        C  0.63919506  0.61023969  0.40917963    -0.01500
C500        C  0.60870120  0.59947399  0.40617871     0.07100
C501        C  0.59350107  0.60501364  0.42796907    -0.07500
C502        C  0.60815490  0.62084825  0.45276768     0.04500
C503        C  0.63869307  0.63161417  0.45592726    -0.14700
C504        C  0.65402699  0.62647482  0.43385305    -0.08000
C505        C  0.59194342  0.58190188  0.38075921     0.05500
C506        C  0.58664433  0.55299460  0.37782958    -0.09100
C507        C  0.56946195  0.53509622  0.35500551     0.00500
C508        C  0.55744662  0.54623755  0.33464098     0.00300
C509        C  0.56295045  0.57523671  0.33744731    -0.12700
C510        C  0.58003220  0.59308723  0.36033842     0.00800
C511        C  0.56420579  0.50532561  0.35296021     0.40100
C512        C  0.58522582  0.62283098  0.36238015     0.36700
C513        C  0.65560545  0.60499834  0.38714579     0.36500
C514        C  0.59152114  0.62659994  0.47413856     0.37200
N515        N  0.55974992  0.48138198  0.35130900    -0.43600
N516        N  0.58938746  0.64667114  0.36402026    -0.44000
N517        N  0.57818268  0.63127175  0.49119654    -0.41400
N518        N  0.66864416  0.60067724  0.36945267    -0.42800
H519        H  0.67747264  0.63465727  0.43615718     0.13300
H520        H  0.57004719  0.59678601  0.42560581     0.09800
H521        H  0.59558988  0.54429892  0.39367476     0.10900
H522        H  0.55368149  0.58379947  0.32181323     0.16700
C523        C  0.59758233  0.60759342  0.08799082    -0.01500
C524        C  0.61381253  0.61089377  0.11334362     0.07100
C525        C  0.64459969  0.62894984  0.11292304    -0.07500
C526        C  0.65940135  0.64348474  0.08739072     0.04500
C527        C  0.64313933  0.63981592  0.06170959    -0.14700
C528        C  0.61221118  0.62205971  0.06262930    -0.08000
C529        C  0.59870535  0.59410323  0.13980464     0.05500
C530        C  0.59892469  0.56796461  0.14580164    -0.09100
C531        C  0.58101408  0.54887208  0.16770967     0.00500
C532        C  0.56285543  0.55612010  0.18412435     0.00300
C533        C  0.56353235  0.58283200  0.17895286    -0.12700
C534        C  0.58118417  0.60176505  0.15680956     0.00800
C535        C  0.58083086  0.52153237  0.17247678     0.40100
C536        C  0.58027062  0.62840793  0.15117004     0.36700
C537        C  0.56592919  0.58846688  0.08724931     0.36500
C538        C  0.69120859  0.66052717  0.08790516     0.37200
N539        N  0.58053969  0.49955608  0.17636182    -0.43600
N540        N  0.57951297  0.64972858  0.14649848    -0.44000
N541        N  0.71671856  0.67411644  0.08841079    -0.41400
N542        N  0.54059690  0.57304194  0.08680359    -0.42800
H543        H  0.59928943  0.61897583  0.04327326     0.13300
H544        H  0.65708533  0.63121125  0.13242892     0.09800
H545        H  0.61214338  0.56189767  0.13252769     0.10900
H546        H  0.54956875  0.58838754  0.19164099     0.16700
C547        C  0.14982560  0.17668824  0.51350142    -0.01500
C548        C  0.17643119  0.17651133  0.01365713     0.07100
C549        C  0.17581336  0.14948929  0.01545139    -0.07500
C550        C  0.14896987  0.12269574  0.01633385     0.04500
C551        C  0.12186832  0.12263396  0.01508607    -0.14700
C552        C  0.12279019  0.14995928  0.01461508    -0.08000
C553        C  0.20528204  0.20442508  0.01198574     0.05500
C554        C  0.21345222  0.22477777  0.03465559    -0.09100
C555        C  0.23985307  0.25185968  0.03363058     0.00500
C556        C  0.25904593  0.25902455  0.00940870     0.00300
C557        C  0.25101129  0.23840468  0.48652880    -0.12700
C558        C  0.22447299  0.21135842  0.48758050     0.00800
C559        C  0.24582972  0.27191954  0.05749228     0.40100
C560        C  0.21685238  0.19139554  0.46337948     0.36700
C561        C  0.14923791  0.20392118  0.51178111     0.36500
C562        C  0.15020927  0.09589266  0.01917099     0.37200
N563        N  0.25044722  0.28784102  0.07671104    -0.43600
N564        N  0.21080542  0.17541139  0.44397247    -0.44000
N565        N  0.15149006  0.07458636  0.02173333    -0.41400
N566        N  0.14873249  0.22572766  0.51045100    -0.42800
H567        H  0.10267995  0.15073809  0.51371819     0.13300
H568        H  0.19644656  0.14936917  0.01613891     0.09800
H569        H  0.19888537  0.21953666  0.05318555     0.10900
H570        H  0.26527923  0.24334457  0.46782220     0.16700
C571        C  0.38427745  0.39882919  0.35875543    -0.01500
C572        C  0.39033075  0.37846369  0.37271635     0.07100
C573        C  0.41360757  0.37484845  0.36262297    -0.07500
C574        C  0.43161654  0.39215547  0.33982134     0.04500
C575        C  0.42591561  0.41292372  0.32636554    -0.14700
C576        C  0.40183010  0.41556859  0.33547072    -0.08000
C577        C  0.37448725  0.36287197  0.39950024     0.05500
C578        C  0.34434922  0.34176085  0.39832782    -0.09100
C579        C  0.32851851  0.32781736  0.42360563     0.00500
C580        C  0.34294918  0.33531922  0.45081826     0.00300
C581        C  0.37339447  0.35600279  0.45157509    -0.12700
C582        C  0.38912065  0.36966168  0.42636899     0.00800
C583        C  0.29746144  0.30670492  0.42084067     0.40100
C584        C  0.42011687  0.39134096  0.42874798     0.36700
C585        C  0.36167875  0.40455289  0.36927909     0.36500
C586        C  0.45654873  0.38921039  0.33138425     0.37200
N587        N  0.27258718  0.28969176  0.41851614    -0.43600
N588        N  0.44495917  0.40865323  0.43053353    -0.44000
N589        N  0.47661076  0.38694469  0.32470095    -0.41400
N590        N  0.34375872  0.40940176  0.37777964    -0.42800
H591        H  0.39772866  0.43184445  0.32529882     0.13300
H592        H  0.41840570  0.35931641  0.37338309     0.09800
H593        H  0.33311789  0.33642141  0.37759764     0.10900
H594        H  0.38510075  0.36187846  0.47204620     0.16700
C595        C  0.35631299  0.34515689  0.10572377    -0.01500
C596        C  0.37228294  0.37624968  0.10608757     0.07100
C597        C  0.37184873  0.39202275  0.08174673    -0.07500
C598        C  0.35644910  0.37725133  0.05679204     0.04500
C599        C  0.34097994  0.34605058  0.05611510    -0.14700
C600        C  0.34056261  0.33032899  0.08093429    -0.08000
C601        C  0.39087653  0.39280907  0.13102258     0.05500
C602        C  0.41599642  0.39073272  0.13707232    -0.09100
C603        C  0.43489143  0.40695693  0.15967654     0.00500
C604        C  0.42868741  0.42561030  0.17648383     0.00300
C605        C  0.40345926  0.42753069  0.17067585    -0.12700
C606        C  0.38454530  0.41131181  0.14802675     0.00800
C607        C  0.46044739  0.40413677  0.16538159     0.40100
C608        C  0.35860839  0.41361686  0.14285899     0.36700
C609        C  0.35608747  0.32806261  0.13038348     0.36500
C610        C  0.35657810  0.39467373  0.03245427     0.37200
N611        N  0.48090650  0.40185878  0.17005007    -0.43600
N612        N  0.33779955  0.41542591  0.13869511    -0.44000
N613        N  0.35673040  0.40870744  0.01300061    -0.41400
N614        N  0.35602269  0.31436662  0.15009925    -0.42800
H615        H  0.32875385  0.30638836  0.08063260     0.13300
H616        H  0.38409918  0.41596815  0.08208119     0.09800
H617        H  0.42095274  0.37661455  0.12390405     0.10900
H618        H  0.39866823  0.44178207  0.18381444     0.16700
C619        C  0.28789594  0.28740281  0.50706055     0.80700
N620        N  0.30101863  0.30332750  0.53125625    -0.77600
C621        C  0.32669240  0.32936258  0.52955787     0.83200
N622        N  0.33945830  0.33920359  0.00349716    -0.77500
C623        C  0.32706506  0.32356793  0.97900469     0.83300
N624        N  0.30103290  0.29760473  0.98096654    -0.79200
C625        C  0.69507500  0.68880131  0.50416386     0.80700
N626        N  0.68309721  0.67783762  0.53070590    -0.77600
C627        C  0.65707590  0.65193974  0.53305856     0.83200
N628        N  0.64309510  0.63739667  0.00877627    -0.77500
C629        C  0.65473477  0.64787828  0.98228985     0.83300
N630        N  0.68078906  0.67349016  0.98012110    -0.79200
N631        N  0.49565155  0.48808160  0.71115009    -0.36100
N632        N  0.53280729  0.52511937  0.75792028    -0.56700
N633        N  0.49348285  0.48084561  0.79969360    -0.36100
N634        N  0.45430122  0.44588697  0.75316055    -0.56700
C635        C  0.51405911  0.51298738  0.69641847     0.27500
C636        C  0.47209696  0.47176670  0.69397028     0.27500
C637        C  0.51024588  0.50384213  0.81736021     0.27500
C638        C  0.46913023  0.46183539  0.81483041     0.27500
C639        C  0.55086146  0.53928964  0.73535170     0.36100
C640        C  0.54926884  0.53594239  0.78207412     0.36100
C641        C  0.44178730  0.43091920  0.72858516     0.36100
C642        C  0.44097252  0.42677592  0.77521775     0.36100
C643        C  0.50225374  0.51234394  0.66937339    -0.21400
C644        C  0.47573217  0.48633873  0.66784387    -0.21400
C645        C  0.49652761  0.49927403  0.84410276    -0.21400
C646        C  0.47066557  0.47268879  0.84256711    -0.21400
C647        C  0.57882289  0.55950334  0.74518996    -0.22400
C648        C  0.57782809  0.55735454  0.77485415    -0.22400
C649        C  0.42010052  0.40222216  0.73505855    -0.22400
C650        C  0.41960653  0.39959320  0.76468065    -0.22400
C651        C  0.54194849  0.53546357  0.70612149    -0.17800
C652        C  0.44825060  0.44337135  0.70056347    -0.17800
C653        C  0.44623278  0.43433209  0.80476023    -0.17800
C654        C  0.53838120  0.52800793  0.81059481    -0.17800
H655        H  0.51183029  0.52880069  0.65241037     0.15100
H656        H  0.46095869  0.47888973  0.64944576     0.15100
H657        H  0.50447337  0.51349219  0.86290271     0.15100
H658        H  0.45486564  0.46251616  0.85998571     0.15100
H659        H  0.59786081  0.57439388  0.73235746     0.13400
H660        H  0.59599385  0.57022104  0.78943242     0.13400
H661        H  0.40584553  0.38510622  0.72004663     0.13400
H662        H  0.40487201  0.38010377  0.77705633     0.13400
H663        H  0.49978250  0.48177587  0.73102925     0.26700
H664        H  0.49918856  0.47748994  0.77914863     0.26700
C665        C  0.68985719  0.98654074  0.00151355     0.80700
N666        N  0.67582746  0.98583328  0.52687446    -0.77600
C667        C  0.64879963  0.98360621  0.52642506     0.83200
N668        N  0.63604493  0.98215202  0.00038434    -0.77500
C669        C  0.64962104  0.98299779  0.97512943     0.83300
N670        N  0.67653162  0.98518231  0.97582306    -0.79200
C671        C  0.27461302  0.96914542  0.00128775     0.80700
N672        N  0.28571941  0.96799971  0.52783449    -0.77600
C673        C  0.30988869  0.96477739  0.52991882     0.83200
N674        N  0.32281605  0.96275675  0.00512124    -0.77500
C675        C  0.31194369  0.96353838  0.97872910     0.83300
N676        N  0.28806438  0.96704756  0.97694330    -0.79200
N677        N  0.48141759  0.98177855  0.70806094    -0.36100
N678        N  0.52239846  0.98065235  0.75045777    -0.56700
N679        N  0.48401954  0.97864981  0.79703209    -0.36100
N680        N  0.44098585  0.97537322  0.75462847    -0.56700
C681        C  0.49982814  0.97796435  0.69034516     0.27500
C682        C  0.45689522  0.97516059  0.69262865     0.27500
C683        C  0.50297225  0.97320154  0.81200696     0.27500
C684        C  0.46033681  0.97090844  0.81424056     0.27500
C685        C  0.53883113  0.98577167  0.72629631     0.36100
C686        C  0.54009950  0.98394042  0.77312127     0.36100
C687        C  0.42673838  0.97931187  0.73220880     0.36100
C688        C  0.42845680  0.97829707  0.77904399     0.36100
C689        C  0.48707954  0.96942123  0.66313793    -0.21400
C690        C  0.46000214  0.96756394  0.66460879    -0.21400
C691        C  0.49134718  0.96222167  0.83920838    -0.21400
C692        C  0.46441180  0.96067404  0.84057858    -0.21400
C693        C  0.56701327  0.99190272  0.73363986    -0.22400
C694        C  0.56782658  0.99080213  0.76332977    -0.22400
C695        C  0.40480794  0.98439903  0.74238787    -0.22400
C696        C  0.40598325  0.98390201  0.77208574    -0.22400
C697        C  0.52819318  0.98281229  0.69764870    -0.17800
C698        C  0.43222990  0.97685674  0.70267717    -0.17800
C699        C  0.43580653  0.97421436  0.80747424    -0.17800
C700        C  0.53106430  0.97909084  0.80240904    -0.17800
H701        H  0.49627348  0.96493505  0.64411824     0.15100
H702        H  0.44440468  0.96137878  0.64697263     0.15100
H703        H  0.50125461  0.95601132  0.85635608     0.15100
H704        H  0.44959008  0.95304886  0.85898742     0.15100
H705        H  0.58499786  0.99628635  0.71911980     0.13400
H706        H  0.58653201  0.99419945  0.77619616     0.13400
H707        H  0.38952565  0.98802034  0.72973691     0.13400
H708        H  0.39173501  0.98705367  0.78684091     0.13400
H709        H  0.48593479  0.98974358  0.72906044     0.26700
H710        H  0.48774372  0.98869605  0.77691553     0.26700
C711        C  0.98806544  0.28779281  0.49417201     0.80700
N712        N  0.98812258  0.30236718  0.96967783    -0.77600
C713        C  0.98929246  0.32881967  0.97115651     0.83200
N714        N  0.99035885  0.34065636  0.49747813    -0.77500
C715        C  0.99011335  0.32669702  0.52231062     0.83300
N716        N  0.98896200  0.30012122  0.52055068    -0.79200
C717        C  0.97386348  0.68659600  0.49706042     0.80700
N718        N  0.96990538  0.66995007  0.52105554    -0.77600
C719        C  0.96520185  0.64209938  0.51872436     0.83200
N720        N  0.96495760  0.63119765  0.49210451    -0.77500
C721        C  0.96878248  0.64733535  0.96774348     0.83300
N722        N  0.97309480  0.67513288  0.97033234    -0.79200
N723        N  0.97858548  0.48949489  0.78978000    -0.36100
N724        N  0.98093685  0.44883574  0.74731959    -0.56700
N725        N  0.97663048  0.48378173  0.70083806    -0.36100
N726        N  0.96953518  0.52159194  0.74338042    -0.56700
C727        C  0.97625773  0.46788736  0.80755738     0.27500
C728        C  0.97144250  0.50690476  0.80540360     0.27500
C729        C  0.97407776  0.46050663  0.68560378     0.27500
C730        C  0.96742675  0.49841351  0.68353580     0.27500
C731        C  0.98741510  0.43890320  0.77164750     0.36100
C732        C  0.98728062  0.43646520  0.72477394     0.36100
C733        C  0.97227820  0.53957211  0.76561929     0.36100
C734        C  0.97046713  0.53611564  0.71886999     0.36100
C735        C  0.96779809  0.47180682  0.83495228    -0.21400
C736        C  0.96498718  0.49652270  0.83364050    -0.21400
C737        C  0.96338298  0.46054367  0.65814666    -0.21400
C738        C  0.95916385  0.48443000  0.65685183    -0.21400
C739        C  0.99758290  0.41983108  0.76451716    -0.22400
C740        C  0.99749624  0.41829479  0.73481401    -0.22400
C741        C  0.97427119  0.56533988  0.75523225    -0.22400
C742        C  0.97321909  0.56320005  0.72560515    -0.22400
C743        C  0.98298547  0.44560430  0.80025790    -0.17800
C744        C  0.97179414  0.53260816  0.79523515    -0.17800
C745        C  0.96780944  0.52495104  0.69048176    -0.17800
C746        C  0.98239692  0.44003582  0.69531993    -0.17800
H747        H  0.96431233  0.45843844  0.85405900     0.15100
H748        H  0.95888359  0.50576625  0.85149571     0.15100
H749        H  0.95917955  0.44505430  0.64077359     0.15100
H750        H  0.95109275  0.49088416  0.63827947     0.15100
H751        H  0.00430182  0.40816893  0.77919141     0.13400
H752        H  0.00400088  0.40514697  0.72208177     0.13400
H753        H  0.97620373  0.58373569  0.76767863     0.13400
H754        H  0.97425902  0.57969364  0.71074477     0.13400
H755        H  0.98616505  0.49303733  0.76866319     0.26700
H756        H  0.98580363  0.49040324  0.72119944     0.26700
O757        O  0.95112721  0.93885740  0.51750884    -0.87800
C758        C  0.01347434  0.96157118  0.95419351     0.88200
Mg759      Mg  0.91730469  0.95048245  0.51509156     1.58100
O760        O  0.03928500  0.00360706  0.51788160    -0.87600
O761        O  0.98686739  0.94527571  0.54645596    -0.74900
C762        C  0.98685222  0.09364278  0.98178972     0.93300
O763        O  0.94453986  0.94516935  0.94874093    -0.74700
O764        O  0.96268576  0.06974494  0.97739893    -0.82200
Mg765      Mg  0.95711691  0.91858893  0.97932964     1.58000
C766        C  0.09277459  0.09521221  0.51125784     0.93200
O767        O  0.96762736  0.88698817  0.50455447    -0.80500
H768        H  0.04666033  0.00637603  0.56054436    -0.05800
C769        C  0.01760171  0.04183768  0.95249669     0.88100
O770        O  0.94404186  0.99092559  0.54430310    -0.75000
O771        O  0.00260347  0.95237568  0.97839672    -0.87700
O772        O  0.09190077  0.07151795  0.50313528    -0.80600
C773        C  0.09376484  0.99056204  0.98553399     0.93300
C774        C  0.99014363  0.88621238  0.51378032     0.93100
Mg775      Mg  0.02074807  0.06110279  0.51535604     1.58000
O776        O  0.00980478  0.09337982  0.99069030    -0.80500
O777        O  0.03337403  0.03421332  0.54539567    -0.74700
O778        O  0.06989696  0.96842719  0.99446762    -0.80600
O779        O  0.90932472  0.88303824  0.98023859    -0.82300
O780        O  0.90700278  0.01051861  0.50080070    -0.80600
C781        C  0.04039792  0.01448802  0.54189776     0.87600
O782        O  0.97498356  0.02708752  0.51636921    -0.87700
O783        O  0.02662496  0.04082745  0.97694339    -0.87800
O784        O  0.99089184  0.03453373  0.94802446    -0.74900
Mg785      Mg  0.02724056  0.95796971  0.51759020     1.58000
O786        O  0.09567909  0.01548922  0.98109414    -0.82300
H787        H  0.94515995  0.93164797  0.56016096    -0.06000
O788        O  0.93832703  0.97573069  0.97602767    -0.87500
H789        H  0.93124442  0.97291128  0.93330130    -0.05800
H790        H  0.97189683  0.03237668  0.55886975    -0.06000
C791        C  0.93742918  0.96486075  0.95205031     0.87600
C792        C  0.96015973  0.93795665  0.54197895     0.88100
C793        C  0.96391768  0.01766895  0.54045845     0.88200
H794        H  0.03261983  0.04825129  0.93432138    -0.06000
O795        O  0.03319131  0.98830088  0.95003154    -0.75000
Mg796      Mg  0.95031070  0.02152588  0.97671173     1.58000
H797        H  0.00531492  0.94669174  0.93591930    -0.06000
C798        C  0.88545272  0.88346029  0.98360254     0.93200
O799        O  0.88169886  0.96298203  0.51267848    -0.82200
C800        C  0.88308837  0.98769959  0.50871536     0.93200
O801        O  0.01476049  0.90974354  0.51762387    -0.82200
Mg802      Mg  0.06014971  0.02854122  0.97923601     1.58200
O803        O  0.88554725  0.90698677  0.99100431    -0.80500
O804        O  0.06928279  0.09651377  0.51452521    -0.82200
C805        C  0.96748873  0.75453279  0.98409968    -0.01500
C806        C  0.98392830  0.77295112  0.50743654     0.07100
C807        C  0.99824951  0.76340305  0.52649451    -0.07500
C808        C  0.99595960  0.73576805  0.52307797     0.04500
C809        C  0.97880850  0.71692006  0.50024576    -0.14700
C810        C  0.96518491  0.72687269  0.98062222    -0.08000
C811        C  0.98616336  0.80208217  0.51234820     0.05500
C812        C  0.96034209  0.80317938  0.51749178    -0.09100
C813        C  0.96110937  0.83022880  0.51988684     0.00500
C814        C  0.98830752  0.85703735  0.51747428     0.00300
C815        C  0.01415740  0.85555901  0.01505112    -0.12700
C816        C  0.01327636  0.82854462  0.01181573     0.00800
C817        C  0.93366072  0.82961660  0.52518283     0.40100
C818        C  0.04049842  0.82883664  0.00591079     0.36700
C819        C  0.95310921  0.76371933  0.96331464     0.36500
C820        C  0.01231598  0.72792104  0.54278706     0.37200
N821        N  0.91160651  0.82895296  0.52965281    -0.43600
N822        N  0.06230910  0.82914594  0.00097552    -0.44000
N823        N  0.02570610  0.72204402  0.55862897    -0.41400
N824        N  0.94151682  0.77111011  0.94676201    -0.42800
H825        H  0.95223552  0.71279362  0.96286902     0.13300
H826        H  0.01112396  0.77755579  0.54425566     0.09800
H827        H  0.93937607  0.78275036  0.51902624     0.10900
H828        H  0.03527821  0.87571156  0.01407544     0.16700
C829        C  0.98200151  0.60075389  0.91419758    -0.01500
C830        C  0.97346435  0.60740823  0.88764869     0.07100
C831        C  0.96386892  0.62807807  0.88703040    -0.07500
C832        C  0.96265617  0.64208015  0.91258209     0.04500
C833        C  0.97076539  0.63497032  0.93936393    -0.14700
C834        C  0.98059637  0.61442466  0.93955981    -0.08000
C835        C  0.97319806  0.59159154  0.86090116     0.05500
C836        C  0.94610064  0.56894574  0.85043785    -0.09100
C837        C  0.94515710  0.55001798  0.82848395     0.00500
C838        C  0.97165483  0.55347742  0.81701054     0.00300
C839        C  0.99869557  0.57700234  0.82646569    -0.12700
C840        C  0.99963935  0.59618234  0.84810102     0.00800
C841        C  0.91688924  0.52676285  0.81850409     0.40100
C842        C  0.02792548  0.62015109  0.85721311     0.36700
C843        C  0.99156515  0.57929044  0.91611601     0.36500
C844        C  0.95201804  0.66266072  0.91070444     0.37200
N845        N  0.89424648  0.50814992  0.81039889    -0.43600
N846        N  0.05056516  0.63944177  0.86447738    -0.44000
N847        N  0.94350110  0.67916316  0.90898340    -0.41400
N848        N  0.99928542  0.56214932  0.91764352    -0.42800
H849        H  0.98722545  0.60882413  0.95973570     0.13300
H850        H  0.95710929  0.63307127  0.86660246     0.09800
H851        H  0.92572971  0.56537869  0.86020052     0.10900
H852        H  0.01907692  0.58007503  0.81719389     0.16700
C853        C  0.99146561  0.57590096  0.62578630    -0.01500
C854        C  0.96580300  0.57725473  0.61979031     0.07100
C855        C  0.94063277  0.56138611  0.63711695    -0.07500
C856        C  0.94080008  0.54427615  0.66034177     0.04500
C857        C  0.96640567  0.54274543  0.66616189    -0.14700
C858        C  0.99156339  0.55866367  0.64885659    -0.08000
C859        C  0.96443336  0.59411277  0.59474976     0.05500
C860        C  0.94855541  0.57858264  0.57023178    -0.09100
C861        C  0.94800482  0.59355445  0.54533370     0.00500
C862        C  0.96315039  0.62484158  0.54502471     0.00300
C863        C  0.97822672  0.64019857  0.57010759    -0.12700
C864        C  0.97932434  0.62516615  0.59468167     0.00800
C865        C  0.93166542  0.57607058  0.52065203     0.40100
C866        C  0.99640944  0.64206407  0.61930269     0.36700
C867        C  0.01770475  0.59157832  0.60823418     0.36500
C868        C  0.91454992  0.52839900  0.67782155     0.37200
N869        N  0.91918887  0.56168285  0.00055256    -0.43600
N870        N  0.01035162  0.65567945  0.63888853    -0.44000
N871        N  0.89355686  0.51576902  0.69192541    -0.41400
N872        N  0.03873604  0.60422007  0.59418436    -0.42800
H873        H  0.01128043  0.55754603  0.65342723     0.13300
H874        H  0.92086972  0.56237393  0.63242601     0.09800
H875        H  0.93709749  0.55463888  0.57036401     0.10900
H876        H  0.99010142  0.66408824  0.57025976     0.16700
C877        C  0.99476403  0.22489995  0.96089769    -0.01500
C878        C  0.98586988  0.20424626  0.98362523     0.07100
C879        C  0.97701244  0.21071043  0.50998298    -0.07500
C880        C  0.97721954  0.23741994  0.51407033     0.04500
C881        C  0.98671764  0.25858473  0.99152584    -0.14700
C882        C  0.99522224  0.25164751  0.96500336    -0.08000
C883        C  0.98590951  0.17592253  0.98042950     0.05500
C884        C  0.01287710  0.17635287  0.47895803    -0.09100
C885        C  0.01384930  0.15003129  0.47802874     0.00500
C886        C  0.98741856  0.12241069  0.97855602     0.00300
C887        C  0.96039791  0.12221715  0.97877352    -0.12700
C888        C  0.95949077  0.14852747  0.97965046     0.00800
C889        C  0.04240038  0.15232885  0.47577610     0.40100
C890        C  0.93116868  0.14692434  0.97949996     0.36700
C891        C  0.00265722  0.21871596  0.93285357     0.36500
C892        C  0.96608375  0.24155190  0.54120925     0.37200
N893        N  0.06533457  0.15430268  0.47375497    -0.43600
N894        N  0.90849547  0.14569212  0.97920298    -0.44000
N895        N  0.95691335  0.24456228  0.56296563    -0.41400
N896        N  0.00878759  0.21366720  0.91032567    -0.42800
H897        H  0.00232538  0.26716020  0.94720134     0.13300
H898        H  0.96972595  0.19467932  0.52744326     0.09800
H899        H  0.03329566  0.19740679  0.47894495     0.10900
H900        H  0.93974524  0.10140543  0.97910889     0.16700
C901        C  0.01467728  0.41496923  0.63556236    -0.01500
C902        C  0.99062815  0.38699426  0.62845622     0.07100
C903        C  0.96453684  0.37565925  0.64473462    -0.07500
C904        C  0.96181868  0.39218255  0.66718652     0.04500
C905        C  0.98534127  0.42075327  0.67334823    -0.14700
C906        C  0.01182077  0.43167564  0.65776826    -0.08000
C907        C  0.99065802  0.37118829  0.60169684     0.05500
C908        C  0.00083552  0.35097254  0.60221715    -0.09100
C909        C  0.00070090  0.33581205  0.57692848     0.00500
C910        C  0.98995900  0.34068800  0.55054517     0.00300
C911        C  0.97968702  0.36095029  0.55049201    -0.12700
C912        C  0.98012694  0.37616029  0.57552230     0.00800
C913        C  0.01287148  0.31651146  0.57853362     0.40100
C914        C  0.96996194  0.39716595  0.57379636     0.36700
C915        C  0.04217412  0.42721215  0.61985783     0.36500
C916        C  0.93442986  0.37979671  0.68307723     0.37200
N917        N  0.02277559  0.30115154  0.57989736    -0.43600
N918        N  0.96195509  0.41409683  0.57250608    -0.44000
N919        N  0.91249322  0.36980038  0.69587970    -0.41400
N920        N  0.06429861  0.43699141  0.60740368    -0.42800
H921        H  0.03007640  0.45350120  0.66265352     0.13300
H922        H  0.94593024  0.35424974  0.63923662     0.09800
H923        H  0.00915423  0.34726597  0.62233935     0.10900
H924        H  0.97126314  0.36514639  0.53069702     0.16700
C925        C  0.97574632  0.37961000  0.92339679    -0.01500
C926        C  0.98645251  0.37678053  0.89636593     0.07100
C927        C  0.99806841  0.35797436  0.89355149    -0.07500
C928        C  0.99931299  0.34202853  0.91739410     0.04500
C929        C  0.98844405  0.34464678  0.94469860    -0.14700
C930        C  0.97674574  0.36360773  0.94718496    -0.08000
C931        C  0.98600676  0.39365078  0.87088074     0.05500
C932        C  0.00884209  0.42289950  0.86733533    -0.09100
C933        C  0.00856103  0.43994187  0.84410939     0.00500
C934        C  0.98493593  0.42772790  0.82426940     0.00300
C935        C  0.96233036  0.39830303  0.82759762    -0.12700
C936        C  0.96276980  0.38118685  0.85067741     0.00800
C937        C  0.03267329  0.46984396  0.84092204     0.40100
C938        C  0.93900910  0.35107526  0.85353400     0.36700
C939        C  0.96355423  0.39875486  0.92715661     0.36500
C940        C  0.01322277  0.32451882  0.91322031     0.37200
N941        N  0.05195909  0.49381725  0.83825010    -0.43600
N942        N  0.92000982  0.32691389  0.85584221    -0.44000
N943        N  0.02469858  0.31085370  0.90928838    -0.41400
N944        N  0.95380057  0.41410651  0.93015360    -0.42800
H945        H  0.96816471  0.36591750  0.96780025     0.13300
H946        H  0.00657015  0.35609899  0.87270613     0.09800
H947        H  0.02678965  0.43241597  0.88283530     0.10900
H948        H  0.94419551  0.38886943  0.81230318     0.16700
C949        C  0.22037240  0.98895729  0.96853274    -0.01500
C950        C  0.19883400  0.98035542  0.99039600     0.07100
C951        C  0.20187575  0.96746161  0.51591799    -0.07500
C952        C  0.22615760  0.96345507  0.52012501     0.04500
C953        C  0.24834226  0.97292134  0.99847354    -0.14700
C954        C  0.24487511  0.98541264  0.97276868    -0.08000
C955        C  0.17237917  0.98351718  0.98673741     0.05500
C956        C  0.14470079  0.95801263  0.98409003    -0.09100
C957        C  0.11896593  0.95975931  0.98186558     0.00500
C958        C  0.12055833  0.98760710  0.98265441     0.00300
C959        C  0.14859025  0.01318248  0.98398211    -0.12700
C960        C  0.17441059  0.01144680  0.48622728     0.00800
C961        C  0.09143158  0.93254835  0.97812410     0.40100
C962        C  0.20232363  0.03834071  0.48980928     0.36700
C963        C  0.21723276  0.00049609  0.94117424     0.36500
C964        C  0.22675349  0.94831777  0.54604546     0.37200
N965        N  0.06944267  0.91072978  0.97473955    -0.43600
N966        N  0.22467731  0.05989484  0.49279598    -0.44000
N967        N  0.22709583  0.93602954  0.56676352    -0.41400
N968        N  0.21459229  0.00961226  0.91922492    -0.42800
H969        H  0.26131803  0.99238380  0.95574068     0.13300
H970        H  0.18490600  0.96016134  0.53246007     0.09800
H971        H  0.14321811  0.93659111  0.98387231     0.10900
H972        H  0.15056388  0.03481852  0.48409186     0.16700
C973        C  0.36853927  0.94549118  0.85590079    -0.01500
C974        C  0.37863520  0.96716334  0.87773728     0.07100
C975        C  0.40730263  0.99151058  0.87616249    -0.07500
C976        C  0.42605087  0.99436640  0.85325683     0.04500
C977        C  0.41619164  0.97237941  0.83167724    -0.14700
C978        C  0.38742174  0.94810501  0.83319175    -0.08000
C979        C  0.35973734  0.96490200  0.90254855     0.05500
C980        C  0.35530004  0.94502586  0.92495959    -0.09100
C981        C  0.33915078  0.94362652  0.94968898     0.00500
C982        C  0.32712174  0.96241112  0.95214139     0.00300
C983        C  0.33070864  0.98150124  0.92911371    -0.12700
C984        C  0.34704025  0.98299449  0.90451500     0.00800
C985        C  0.33458412  0.92216610  0.97175937     0.40100
C986        C  0.35067509  0.00331118  0.88157229     0.36700
C987        C  0.33868566  0.92092734  0.85597366     0.36500
C988        C  0.45516455  0.02013721  0.85209236     0.37200
N989        N  0.33085067  0.90482757  0.98931289    -0.43600
N990        N  0.35366617  0.01954764  0.86310450    -0.44000
N991        N  0.47850995  0.04076079  0.85108169    -0.41400
N992        N  0.31467369  0.90137230  0.85590213    -0.42800
H993        H  0.37973314  0.93129125  0.81650939     0.13300
H994        H  0.41498028  0.00830040  0.89287342     0.09800
H995        H  0.36481569  0.93085695  0.92324809     0.10900
H996        H  0.32148202  0.99592597  0.93069499     0.16700
C997        C  0.35593154  0.95181759  0.58478898    -0.01500
C998        C  0.35325754  0.96554159  0.60988068     0.07100
C999        C  0.33524578  0.97827292  0.60923297    -0.07500
C1000       C  0.32021042  0.97780688  0.58383750     0.04500
C1001       C  0.32299142  0.96413630  0.55845204    -0.14700
C1002       C  0.34068286  0.95092807  0.55963550    -0.08000
C1003       C  0.37119398  0.96886787  0.63600056     0.05500
C1004       C  0.39683045  0.99609971  0.64085519    -0.09100
C1005       C  0.41656784  0.99927195  0.66289324     0.00500
C1006       C  0.41048788  0.97503934  0.68080151     0.00300
C1007       C  0.38429664  0.94808100  0.67667306    -0.12700
C1008       C  0.36477174  0.94476434  0.65430854     0.00800
C1009       C  0.44341585  0.02725967  0.66619709     0.40100
C1010       C  0.33876185  0.91627836  0.64999231     0.36700
C1011       C  0.37558533  0.93998775  0.58383753     0.36500
C1012       C  0.30377380  0.99315734  0.58415712     0.37200
N1013       N  0.46503908  0.04962175  0.66880953    -0.43600
N1014       N  0.31798910  0.89338584  0.64650696    -0.44000
N1015       N  0.29077606  0.00565106  0.58451508    -0.41400
N1016       N  0.39153203  0.93075504  0.58301807    -0.42800
H1017       H  0.34331164  0.94041278  0.54055694     0.13300
H1018       H  0.33360571  0.98932474  0.62841052     0.09800
H1019       H  0.40198759  0.01458318  0.62664415     0.10900
H1020       H  0.37963762  0.92937643  0.69034744     0.16700
C1021       C  0.82906344  0.01433590  0.99317726    -0.01500
C1022       C  0.80313826  0.99238154  0.50801376     0.07100
C1023       C  0.80363875  0.96925770  0.52276432    -0.07500
C1024       C  0.82960703  0.96784022  0.52458123     0.04500
C1025       C  0.85581450  0.98985633  0.51109092    -0.14700
C1026       C  0.85528076  0.01359173  0.49721047    -0.08000
C1027       C  0.77485272  0.99224906  0.50580083     0.05500
C1028       C  0.75615217  0.97791142  0.98218443    -0.09100
C1029       C  0.72845905  0.97580720  0.98026719     0.00500
C1030       C  0.71909674  0.98841231  0.50223929     0.00300
C1031       C  0.73856144  0.00366608  0.52512305    -0.12700
C1032       C  0.76626654  0.00580566  0.52692467     0.00800
C1033       C  0.70969493  0.95941556  0.95627833     0.40100
C1034       C  0.78564950  0.02202544  0.55057981     0.36700
C1035       C  0.82910111  0.03777831  0.97665436     0.36500
C1036       C  0.82856357  0.94373512  0.54076951     0.37200
N1037       N  0.69475357  0.94631118  0.93699069    -0.43600
N1038       N  0.80137820  0.03509130  0.56940384    -0.44000
N1039       N  0.82758876  0.92441532  0.55387587    -0.41400
N1040       N  0.82925275  0.05664616  0.96344643    -0.42800
H1041       H  0.87430606  0.02924704  0.98293879     0.13300
H1042       H  0.78354602  0.95213723  0.53277418     0.09800
H1043       H  0.76286533  0.96763696  0.96577315     0.10900
H1044       H  0.73228095  0.01423437  0.54153542     0.16700
C1045       C  0.58790500  0.96203463  0.92141000    -0.01500
C1046       C  0.60313159  0.97798944  0.89647159     0.09700
C1047       C  0.63400766  0.99539484  0.89720894    -0.07500
C1048       C  0.64979230  0.99702821  0.92235324     0.04500
C1049       C  0.63452111  0.98094382  0.94734165    -0.14700
C1050       C  0.60361081  0.96348734  0.94641110    -0.08000
C1051       C  0.58693197  0.97852072  0.87031659     0.05500
C1052       C  0.58688808  0.00462903  0.86361508    -0.09100
C1053       C  0.56930675  0.00531651  0.84116864     0.00500
C1054       C  0.55193167  0.97974926  0.82460783     0.00300
C1055       C  0.55279362  0.95392229  0.83053107    -0.12700
C1056       C  0.56997331  0.95306210  0.85334964     0.00800
C1057       C  0.56848383  0.03210383  0.83616413     0.40100
C1058       C  0.56927608  0.92568161  0.85947896     0.36700
C1059       C  0.55606767  0.94511050  0.92228897     0.36500
C1060       C  0.68131369  0.01682494  0.92247785     0.37200
N1061       N  0.56763011  0.05348433  0.83221746    -0.43600
N1062       N  0.56852109  0.90368032  0.86461367    -0.44000
N1063       N  0.70655546  0.03281469  0.92270197    -0.41400
N1064       N  0.53055859  0.93159625  0.92291176    -0.42800
H1065       H  0.59156555  0.95119606  0.96547028     0.13300
H1066       H  0.64572188  0.00819914  0.87825751     0.09800
H1067       H  0.59971304  0.02417233  0.87671862     0.10900
H1068       H  0.53928861  0.93420090  0.81789502     0.16700
C1069       C  0.58515559  0.96869609  0.57599552    -0.01500
C1070       C  0.59944200  0.98226308  0.60207096     0.07100
C1071       C  0.63020363  0.99529440  0.60387021    -0.07500
C1072       C  0.64690249  0.99548701  0.57997733     0.04500
C1073       C  0.63268039  0.98245746  0.55349155    -0.14700
C1074       C  0.60171462  0.96889717  0.55215089    -0.08000
C1075       C  0.58249363  0.98304087  0.62754516     0.05500
C1076       C  0.56181624  0.95631667  0.64058935    -0.09100
C1077       C  0.54421610  0.95592954  0.66357729     0.00500
C1078       C  0.54715950  0.98260469  0.67381867     0.00300
C1079       C  0.56812695  0.00939209  0.66120496    -0.12700
C1080       C  0.58585376  0.00982282  0.63824596     0.00800
C1081       C  0.52290147  0.92795641  0.67611469     0.40100
C1082       C  0.60669496  0.03787608  0.62550275     0.36700
C1083       C  0.55355677  0.95516617  0.57288385     0.36500
C1084       C  0.67850980  0.01017699  0.58326765     0.37200
N1085       N  0.50570870  0.90561936  0.68623367    -0.43600
N1086       N  0.62344822  0.06038857  0.61536512    -0.44000
N1087       N  0.70381036  0.02206000  0.58641480    -0.41400
N1088       N  0.52824015  0.94428646  0.57043744    -0.42800
H1089       H  0.59022799  0.95851001  0.53223909     0.13300
H1090       H  0.64121882  0.00556854  0.62400720     0.09800
H1091       H  0.55924573  0.93569950  0.63255695     0.10900
H1092       H  0.57042449  0.02991670  0.66918247     0.16700
C1093       C  0.83162608  0.80129747  0.98654255    -0.01500
C1094       C  0.80414998  0.80000033  0.98680216     0.07100
C1095       C  0.80312296  0.82604952  0.98318525    -0.07500
C1096       C  0.82912396  0.85344400  0.98029894     0.04500
C1097       C  0.85693178  0.85505047  0.98136146    -0.14700
C1098       C  0.85756394  0.82853161  0.98355648    -0.08000
C1099       C  0.77628437  0.77166088  0.99114298     0.05500
C1100       C  0.76177424  0.76576174  0.51793666    -0.09100
C1101       C  0.73555111  0.73906168  0.52304792     0.00500
C1102       C  0.72338260  0.71753663  0.00093867     0.00300
C1103       C  0.73835902  0.72355852  0.97418895    -0.12700
C1104       C  0.76441343  0.75024774  0.96916805     0.00800
C1105       C  0.72153882  0.73524671  0.55091966     0.40100
C1106       C  0.77832976  0.75543174  0.94107995     0.36700
C1107       C  0.83383980  0.77511961  0.99057156     0.36500
C1108       C  0.82640737  0.87926495  0.47631890     0.37200
N1109       N  0.71048276  0.73248004  0.57331905    -0.43600
N1110       N  0.78945851  0.75961058  0.91855670    -0.44000
N1111       N  0.82411100  0.89989381  0.47271236    -0.41400
N1112       N  0.83569174  0.75419954  0.99385382    -0.42800
H1113       H  0.87847684  0.82903743  0.98413096     0.13300
H1114       H  0.78189174  0.82494334  0.48320789     0.09800
H1115       H  0.77105003  0.78222733  0.53494096     0.10900
H1116       H  0.72973346  0.70738492  0.95691125     0.16700
C1117       C  0.63904838  0.61029633  0.90934089    -0.01500
C1118       C  0.60857407  0.59965624  0.90635531     0.07100
C1119       C  0.59345614  0.60530674  0.92814719    -0.07500
C1120       C  0.60817108  0.62113235  0.95292636     0.04500
C1121       C  0.63868427  0.63176338  0.95607142    -0.14700
C1122       C  0.65393977  0.62651315  0.93400111    -0.08000
C1123       C  0.59175035  0.58209841  0.88095450     0.05500
C1124       C  0.58643030  0.55318768  0.87798578    -0.09100
C1125       C  0.56920724  0.53530762  0.85517222     0.00500
C1126       C  0.55717960  0.54647384  0.83484636     0.00300
C1127       C  0.56268219  0.57546849  0.83770577    -0.12700
C1128       C  0.57979680  0.59329775  0.86059414     0.00800
C1129       C  0.56391031  0.50552345  0.85310940     0.40100
C1130       C  0.58497989  0.62303453  0.86269508     0.36700
C1131       C  0.65538306  0.60495632  0.88730063     0.36500
C1132       C  0.59163437  0.62702570  0.97429116     0.37200
N1133       N  0.55941338  0.48156588  0.85145298    -0.43600
N1134       N  0.58912910  0.64686698  0.86438991    -0.44000
N1135       N  0.57838376  0.63181857  0.99134879    -0.41400
N1136       N  0.66836410  0.60056004  0.86960331    -0.42800
H1137       H  0.67736874  0.63460076  0.93629525     0.13300
H1138       H  0.57001910  0.59717686  0.92579872     0.09800
H1139       H  0.59539124  0.54447361  0.89379471     0.10900
H1140       H  0.55339368  0.58404684  0.82211080     0.16700
C1141       C  0.59748403  0.60752274  0.58789900    -0.01500
C1142       C  0.61370584  0.61072512  0.61324199     0.07100
C1143       C  0.64451870  0.62858631  0.61276221    -0.07500
C1144       C  0.65933788  0.64307142  0.58721711     0.04500
C1145       C  0.64307316  0.63957784  0.56158204    -0.14700
C1146       C  0.61213397  0.62196609  0.56253244    -0.08000
C1147       C  0.59856769  0.59405014  0.63976211     0.05500
C1148       C  0.59918554  0.56819593  0.64620598    -0.09100
C1149       C  0.58133011  0.54919627  0.66820294     0.00500
C1150       C  0.56282488  0.55625481  0.68426277     0.00300
C1151       C  0.56312767  0.58271746  0.67867469    -0.12700
C1152       C  0.58072774  0.60155541  0.65645039     0.00800
C1153       C  0.58154940  0.52212227  0.67341301     0.40100
C1154       C  0.57944569  0.62793652  0.65041287     0.36700
C1155       C  0.56581571  0.58850163  0.58715719     0.36500
C1156       C  0.69115662  0.65985308  0.58765285     0.37200
N1157       N  0.58158276  0.50035921  0.67765635    -0.43600
N1158       N  0.57838616  0.64903946  0.64541348    -0.44000
N1159       N  0.71667590  0.67321985  0.58808840    -0.41400
N1160       N  0.54047039  0.57316284  0.58670834    -0.42800
H1161       H  0.59921856  0.61898227  0.54319497     0.13300
H1162       H  0.65700753  0.63074497  0.63223821     0.09800
H1163       H  0.61267059  0.56225325  0.63320527     0.10900
H1164       H  0.54890590  0.58813537  0.69109382     0.16700
C1165       C  0.14960149  0.17663268  0.01382162    -0.01500
C1166       C  0.17663001  0.17651501  0.51325684     0.07100
C1167       C  0.17595737  0.14946496  0.51500439    -0.07500
C1168       C  0.14908560  0.12269986  0.51595773     0.04500
C1169       C  0.12200352  0.12268724  0.51480434    -0.14700
C1170       C  0.12298316  0.15003932  0.51435013    -0.08000
C1171       C  0.20551477  0.20440760  0.51165508     0.05500
C1172       C  0.21374193  0.22463785  0.53444348    -0.09100
C1173       C  0.24018866  0.25168676  0.53352292     0.00500
C1174       C  0.25936153  0.25896276  0.50926835     0.00300
C1175       C  0.25074774  0.23835664  0.98678322    -0.12700
C1176       C  0.22424388  0.21128920  0.98792586     0.00800
C1177       C  0.24624109  0.27158615  0.55754579     0.40100
C1178       C  0.21665448  0.19121499  0.96382495     0.36700
C1179       C  0.14895309  0.20383133  0.01203566     0.36500
C1180       C  0.15027600  0.09587370  0.51882834     0.37200
N1181       N  0.25091992  0.28737350  0.57689897    -0.43600
N1182       N  0.21062446  0.17513850  0.94450010    -0.44000
N1183       N  0.15151228  0.07454699  0.52143065    -0.41400
N1184       N  0.14839451  0.22560760  0.01065186    -0.42800
H1185       H  0.10246736  0.15062057  0.01389267     0.13300
H1186       H  0.19656995  0.14930161  0.51564161     0.09800
H1187       H  0.19918861  0.21932079  0.55299535     0.10900
H1188       H  0.26503270  0.24322598  0.96810134     0.16700
C1189       C  0.38394299  0.39883554  0.85884704    -0.01500
C1190       C  0.39006054  0.37851381  0.87280874     0.07100
C1191       C  0.41342706  0.37502449  0.86275621    -0.07500
C1192       C  0.43145678  0.39241194  0.84000281     0.04500
C1193       C  0.42568421  0.41312963  0.82654127    -0.14700
C1194       C  0.40151888  0.41565541  0.83560682    -0.08000
C1195       C  0.37420501  0.36286354  0.89957147     0.05500
C1196       C  0.34406974  0.34173503  0.89838026    -0.09100
C1197       C  0.32822602  0.32777110  0.92364917     0.00500
C1198       C  0.34263765  0.33527928  0.95087078     0.00300
C1199       C  0.37308414  0.35595396  0.95164097    -0.12700
C1200       C  0.38882409  0.36962615  0.92644791     0.00800
C1201       C  0.29718028  0.30662333  0.92086604     0.40100
C1202       C  0.41982045  0.39129531  0.92885596     0.36700
C1203       C  0.36123942  0.40442545  0.86932190     0.36500
C1204       C  0.45647999  0.38959846  0.83162340     0.37200
N1205       N  0.27231675  0.28957701  0.91852707    -0.43600
N1206       N  0.44466401  0.40859455  0.93067009    -0.44000
N1207       N  0.47661661  0.38743905  0.82499347    -0.41400
N1208       N  0.34323082  0.40916250  0.87778292    -0.42800
H1209       H  0.39735716  0.43188835  0.82542984     0.13300
H1210       H  0.41827835  0.35952955  0.87351579     0.09800
H1211       H  0.33285023  0.33640065  0.87764407     0.10900
H1212       H  0.38478266  0.36182054  0.97211637     0.16700
C1213       C  0.35633114  0.34517348  0.60578578    -0.01500
C1214       C  0.37236746  0.37626344  0.60612057     0.07100
C1215       C  0.37207950  0.39203396  0.58171573    -0.07500
C1216       C  0.35676382  0.37726052  0.55672468     0.04500
C1217       C  0.34120771  0.34605358  0.55608077    -0.14700
C1218       C  0.34064633  0.33034108  0.58096610    -0.08000
C1219       C  0.39089232  0.39282275  0.63109334     0.05500
C1220       C  0.41606546  0.39084857  0.63716067    -0.09100
C1221       C  0.43491896  0.40710993  0.65977900     0.00500
C1222       C  0.42861434  0.42569155  0.67658794     0.00300
C1223       C  0.40332301  0.42749654  0.67076908    -0.12700
C1224       C  0.38445217  0.41124132  0.64810484     0.00800
C1225       C  0.46054037  0.40440625  0.66549408     0.40100
C1226       C  0.35844724  0.41342192  0.64292609     0.36700
C1227       C  0.35598163  0.32808737  0.63050564     0.36500
C1228       C  0.35708827  0.39469699  0.53231136     0.37200
N1229       N  0.48105477  0.40222590  0.67016956    -0.43600
N1230       N  0.33758025  0.41512666  0.63875941    -0.44000
N1231       N  0.35740946  0.40874723  0.51279648    -0.41400
N1232       N  0.35581793  0.31439730  0.65027037    -0.42800
H1233       H  0.32877924  0.30639974  0.58069761     0.13300
H1234       H  0.38438584  0.41597903  0.58202954     0.09800
H1235       H  0.42109875  0.37678719  0.62399113     0.10900
H1236       H  0.39844947  0.44168722  0.68390976     0.16700
loop_ 
_geom_bond_atom_site_label_1 
_geom_bond_atom_site_label_2 
_geom_bond_distance 
_geom_bond_site_symmetry_2 
_ccdc_geom_bond_type 
C1            N2   1.357       .  A
C1          N624   1.364   1_554  A
C1          C556   1.493       .  S
N2            C3   1.354       .  A
C3          N622   1.352       .  A
C3          C599   1.475       .  S
N4            C5   1.356       .  A
N4          C621   1.352       .  A
C5            N6   1.362       .  A
C5          C580   1.491       .  S
N6          C619   1.364       .  A
C7            N8   1.364       .  A
C7          N630   1.361   1_554  A
C7         C1102   1.494       .  S
N8            C9   1.362       .  A
C9          N628   1.356       .  A
C9          C527   1.487       .  S
N10          C11   1.353       .  A
N10         C627   1.356       .  A
C11          N12   1.355       .  A
C11         C503   1.475       .  S
N12         C625   1.361       .  A
N13          C18   1.352       .  A
N13          C17   1.352       .  A
N13          H45   1.033       .  S
N14          C21   1.350       .  A
N14          C22   1.349       .  A
N15          C20   1.353       .  A
N15          C19   1.352       .  A
N15          H46   1.035       .  S
N16          C23   1.348       .  A
N16          C24   1.349       .  A
C17          C25   1.387       .  A
C17          C33   1.413       .  A
C18          C34   1.414       .  A
C18          C26   1.387       .  A
C19          C27   1.386       .  A
C19          C36   1.414       .  A
C20          C35   1.414       .  A
C20          C28   1.387       .  A
C21          C33   1.409       .  A
C21          C29   1.385       .  A
C22          C36   1.411       .  A
C22          C30   1.387       .  A
C23          C31   1.387       .  A
C23          C34   1.410       .  A
C24          C32   1.385       .  A
C24          C35   1.408       .  A
C25          C26   1.376       .  A
C25          H37   1.082       .  S
C26          H38   1.082       .  S
C27          C28   1.374       .  A
C27          H39   1.082       .  S
C28          H40   1.082       .  S
C29          C30   1.372       .  A
C29          H41   1.082       .  S
C30          H42   1.082       .  S
C31          C32   1.373       .  A
C31          H43   1.082       .  S
C32          H44   1.082       .  S
C33         C532   1.483       .  S
C34         C604   1.479       .  S
C35         C575   1.483       .  S
C36         C508   1.485       .  S
C47          N52   1.361       .  A
C47         N666   1.365       .  A
C47        C1030   1.491       .  S
N48          C49   1.362       .  A
N48         C665   1.365       .  A
C49         N668   1.357       .  A
C49         C455   1.492       .  S
N50          C51   1.354       .  A
N50         C667   1.357       .  A
C51          N52   1.357       .  A
C51         C431   1.484       .  S
C53          N58   1.360       .  A
C53         N672   1.364       .  A
C53         C335   1.492       .  S
N54          C55   1.363       .  A
N54         C671   1.364       .  A
C55         N674   1.358       .  A
C55         C383   1.494       .  S
N56          C57   1.355       .  A
N56         C673   1.358       .  A
C57          N58   1.356       .  A
C57         C364   1.479       .  S
N59          C64   1.354       .  A
N59          C63   1.353       .  A
N59          H91   1.035       .  S
N60          C67   1.350       .  A
N60          C68   1.352       .  A
N61          C66   1.352       .  A
N61          C65   1.353       .  A
N61          H92   1.036       .  S
N62          C69   1.352       .  A
N62          C70   1.351       .  A
C63          C71   1.388       .  A
C63          C79   1.418       .  A
C64          C80   1.417       .  A
C64          C72   1.387       .  A
C65          C73   1.387       .  A
C65          C82   1.415       .  A
C66          C81   1.416       .  A
C66          C74   1.387       .  A
C67          C79   1.414       .  A
C67          C75   1.387       .  A
C68          C82   1.412       .  A
C68          C76   1.385       .  A
C69          C77   1.385       .  A
C69          C80   1.412       .  A
C70          C78   1.387       .  A
C70          C81   1.414       .  A
C71          C72   1.374       .  A
C71          H83   1.082       .  S
C72          H84   1.082       .  S
C73          C74   1.374       .  A
C73          H85   1.082       .  S
C74          H86   1.082       .  S
C75          C76   1.373       .  A
C75          H87   1.082       .  S
C76          H88   1.082       .  S
C77          C78   1.373       .  A
C77          H89   1.082       .  S
C78          H90   1.082       .  S
C79         C460   1.486       .  S
C80         C388   1.490       .  S
C81         C359   1.488       .  S
C82         C436   1.488       .  S
C93          N98   1.368   1_556  A
C93         N712   1.363       .  A
C93         C881   1.502       .  S
N94          C95   1.357       .  A
N94         C711   1.363       .  A
C95         N714   1.353       .  A
C95         C311   1.489       .  S
N96          C97   1.356   1_556  A
N96         C713   1.353       .  A
C97          N98   1.365       .  A
C97         C292   1.498       .  S
C99         N100   1.359   1_556  A
C99         N722   1.364       .  A
C99         C191   1.483   1_556  S
N100        C101   1.356       .  A
C101        N102   1.353   1_554  A
C101        C244   1.484       .  S
N102        C721   1.357       .  A
C103        N104   1.362       .  A
C103        N720   1.357       .  A
C103        C215   1.488       .  S
N104        C717   1.364       .  A
N105        C110   1.354       .  A
N105        C109   1.352       .  A
N105        H137   1.033       .  S
N106        C113   1.351       .  A
N106        C114   1.353       .  A
N107        C112   1.352       .  A
N107        C111   1.355       .  A
N107        H138   1.034       .  S
N108        C115   1.352       .  A
N108        C116   1.350       .  A
C109        C117   1.389       .  A
C109        C125   1.419       .  A
C110        C126   1.417       .  A
C110        C118   1.386       .  A
C111        C119   1.387       .  A
C111        C128   1.417       .  A
C112        C127   1.417       .  A
C112        C120   1.387       .  A
C113        C125   1.415       .  A
C113        C121   1.387       .  A
C114        C128   1.413       .  A
C114        C122   1.385       .  A
C115        C123   1.385       .  A
C115        C126   1.411       .  A
C116        C124   1.387       .  A
C116        C127   1.413       .  A
C117        C118   1.376       .  A
C117        H129   1.082       .  S
C118        H130   1.082       .  S
C119        C120   1.376       .  A
C119        H131   1.082       .  S
C120        H132   1.082       .  S
C121        C122   1.373       .  A
C121        H133   1.082   1_655  S
C122        H134   1.082   1_655  S
C123        C124   1.371       .  A
C123        H135   1.082       .  S
C124        H136   1.082       .  S
C125        C316   1.487       .  S
C126        C220   1.488       .  S
C127        C239   1.484       .  S
C128        C287   1.493       .  S
O139       Mg141   2.147       .  S
O139       Mg765   2.157   1_554  S
O139        C174   1.235       .  S
C140        H179   1.081       .  S
C140        O153   1.236       .  S
C140        O177   1.270       .  A
Mg141       O788   2.161   1_554  S
Mg141       O181   2.271       .  S
Mg141       O152   2.301       .  S
Mg141       O803   2.318   1_554  S
O142       Mg167   2.145   1_545  S
O142       Mg802   2.161   1_554  S
O142        C163   1.235       .  S
O143        C174   1.269       .  A
O143       Mg167   2.297   1_655  S
C144        C268   1.499       .  S
C144        O146   1.273       .  A
C144        O158   1.278   1_655  A
O145        C173   1.270       .  A
O145       Mg147   2.299       .  S
O146       Mg178   2.271       .  S
Mg147       O153   2.141   1_655  S
Mg147       O757   2.157       .  S
Mg147       O161   2.251       .  S
Mg147       O767   2.304       .  S
C148        C551   1.494       .  S
C148        O186   1.275       .  A
C148        O154   1.275       .  A
O149        C156   1.275       .  A
O149       Mg765   2.305   1_554  S
H150        C163   1.081       .  S
C151        H176   1.081       .  S
C151        O165   1.235       .  S
C151        O166   1.270   1_455  A
O152        C175   1.270   1_565  A
O153       Mg785   2.159       .  S
O154       Mg802   2.305   1_554  S
C155        C340   1.494       .  S
C155        O168   1.275   1_565  A
C155        O160   1.273       .  A
C156        C196   1.492       .  S
C156        O183   1.273   1_655  A
Mg157       O164   2.152   1_455  S
Mg157       O783   2.162   1_554  S
Mg157       O159   2.297       .  S
Mg157       O186   2.273       .  S
Mg157       O776   2.328   1_554  S
O158       Mg775   2.328       .  S
O159        C163   1.269       .  A
O160       Mg785   2.290       .  S
O161        C180   1.272       .  A
O162        C182   1.275   1_546  A
O162       Mg796   2.299       .  S
O164       Mg796   2.158   1_554  S
O164        C175   1.235       .  S
O165       Mg184   2.157       .  S
O165       Mg775   2.163       .  S
O166       Mg178   2.298       .  S
Mg167       O771   2.159   1_554  S
Mg167       O183   2.270       .  S
Mg167       O778   2.290   1_554  S
O168       Mg184   2.287       .  S
H169        C174   1.081       .  S
O170       Mg178   2.153   1_565  S
O170       Mg759   2.159       .  S
O170        C173   1.235       .  S
H171        C173   1.081       .  S
H172        C175   1.081       .  S
O177       Mg184   2.297   1_565  S
Mg178       O782   2.158       .  S
Mg178       O780   2.303       .  S
C180        C479   1.493       .  S
C180        O185   1.276       .  A
O181        C182   1.273       .  A
C182        C407   1.491       .  S
Mg184       O760   2.161       .  S
Mg184       O772   2.305       .  S
O185       Mg759   2.318       .  S
C187        C192   1.401       .  A
C187        C806   1.412       .  A
C187        C201   1.444       .  S
C188        C193   1.488       .  S
C188        C189   1.401       .  A
C188        C805   1.412   1_554  A
C189        C190   1.400       .  A
C189        H208   1.085   1_655  S
C190        C191   1.417       .  A
C190        C202   1.444   1_655  S
C191        C810   1.404   1_554  A
C192        C809   1.403       .  A
C192        H207   1.084       .  S
C193        C194   1.403       .  A
C193        C816   1.410   1_655  A
C194        C195   1.402       .  A
C194        H209   1.085       .  S
C195        C196   1.417       .  A
C195        C199   1.443       .  S
C196        C815   1.407   1_655  A
C197        C198   1.400       .  A
C197        C814   1.407   1_455  A
C197        H210   1.081       .  S
C198        C811   1.410   1_455  A
C198        C200   1.445       .  S
C199        N203   1.157       .  T
C200        N204   1.157       .  T
C201        N206   1.157       .  T
C202        N205   1.157       .  T
C211        C212   1.407       .  A
C211        C216   1.394       .  A
C211        C225   1.445       .  S
C212        C217   1.483       .  S
C212        C213   1.404       .  A
C213        C214   1.407       .  A
C213        H232   1.085       .  S
C214        C215   1.417       .  A
C214        C226   1.443       .  S
C215        C216   1.407       .  A
C216        H231   1.085       .  S
C217        C218   1.403       .  A
C217        C222   1.411       .  A
C218        C219   1.402       .  A
C218        H233   1.085       .  S
C219        C220   1.410       .  A
C219        C223   1.443       .  S
C220        C221   1.402       .  A
C221        C222   1.400       .  A
C221        H234   1.085   1_655  S
C222        C224   1.444   1_655  S
C223        N227   1.157       .  T
C224        N228   1.157       .  T
C225        N230   1.157       .  T
C226        N229   1.157       .  T
C235        C236   1.409       .  A
C235        C240   1.397       .  A
C235        C249   1.444   1_655  S
C236        C241   1.477       .  S
C236        C237   1.402       .  A
C237        C238   1.399       .  A
C237        H256   1.085       .  S
C238        C239   1.410       .  A
C238        C250   1.443       .  S
C239        C240   1.402       .  A
C240        H255   1.085   1_655  S
C241        C242   1.400       .  A
C241        C246   1.407       .  A
C242        C243   1.399       .  A
C242        H257   1.085       .  S
C243        C244   1.418       .  A
C243        C247   1.444       .  S
C244        C245   1.406       .  A
C245        C246   1.398       .  A
C245        H258   1.082       .  S
C246        C248   1.444       .  S
C247        N869   1.157       .  T
C248        N252   1.157   1_655  T
C249        N254   1.157       .  T
C250        N253   1.157       .  T
N251        C865   1.157       .  T
C259        C260   1.407       .  A
C259        C264   1.402       .  A
C259        C273   1.444   1_655  S
C260        C265   1.492       .  S
C260        C879   1.404       .  A
C261        C262   1.407       .  A
C261        C878   1.404   1_554  A
C261        H280   1.085       .  S
C262        C881   1.419   1_554  A
C262        C274   1.443       .  S
C263        C711   1.501       .  S
C263        C264   1.411       .  A
C263        C880   1.419       .  A
C264        H279   1.081   1_655  S
C265        C270   1.408       .  A
C265        C884   1.403   1_655  A
C266        C267   1.406       .  A
C266        C883   1.403   1_455  A
C266        H281   1.085       .  S
C267        C886   1.419   1_455  A
C267        C271   1.443       .  S
C268        C269   1.411       .  A
C268        C885   1.419   1_655  A
C269        C270   1.403       .  A
C269        H282   1.084       .  S
C270        C272   1.444       .  S
C271        N275   1.157       .  T
C272        N276   1.157       .  T
C273        N278   1.157       .  T
C274        N277   1.157       .  T
C283        C284   1.411   1_455  A
C283        C288   1.404       .  A
C283        C297   1.443       .  S
C284        C289   1.488       .  S
C284        C285   1.403       .  A
C285        C286   1.403       .  A
C285        H304   1.085       .  S
C286        C287   1.411       .  A
C286        C298   1.443       .  S
C287        C288   1.404   1_655  A
C288        H303   1.084       .  S
C289        C290   1.404   1_655  A
C289        C294   1.406       .  A
C290        C291   1.410       .  A
C290        H305   1.084       .  S
C291        C292   1.418   1_455  A
C291        C295   1.443       .  S
C292        C293   1.410       .  A
C293        C294   1.398       .  A
C293        H306   1.084       .  S
C294        C296   1.445       .  S
C295        N299   1.157       .  T
C296        N300   1.157       .  T
C297        N302   1.157       .  T
C298        N301   1.157       .  T
C307        C308   1.406       .  A
C307        C312   1.398       .  A
C307        C321   1.445       .  S
C308        C313   1.478       .  S
C308        C309   1.400       .  A
C309        C310   1.402       .  A
C309        H328   1.085   1_655  S
C310        C311   1.417       .  A
C310        C322   1.442   1_655  S
C311        C312   1.409       .  A
C312        H327   1.084       .  S
C313        C314   1.402   1_655  A
C313        C318   1.409       .  A
C314        C315   1.399       .  A
C314        H329   1.085       .  S
C315        C316   1.410   1_455  A
C315        C319   1.444       .  S
C316        C317   1.403       .  A
C317        C318   1.399       .  A
C317        H330   1.085       .  S
C318        C320   1.443       .  S
C319        N323   1.157       .  T
C320        N324   1.157       .  T
C321        N326   1.157       .  T
C322        N325   1.157       .  T
C331        C332   1.408       .  A
C331        C336   1.401       .  A
C331        C345   1.444   1_565  S
C332        C337   1.487       .  S
C332        C951   1.403       .  A
C333        C334   1.403       .  A
C333        C950   1.403   1_554  A
C333        H352   1.085       .  S
C334        C953   1.417   1_554  A
C334        C346   1.444       .  S
C335        C336   1.410       .  A
C335        C952   1.417       .  A
C336        H351   1.084       .  S
C337        C338   1.400       .  A
C337        C960   1.410   1_565  A
C338        C339   1.401       .  A
C338        H353   1.085       .  S
C339        C340   1.419       .  A
C339        C343   1.442       .  S
C340        C341   1.408   1_565  A
C341        C960   1.403       .  A
C341        H972   1.083       .  S
C342        C955   1.410   1_545  A
C342        C959   1.402       .  A
C342        C344   1.444       .  S
C343        N347   1.156       .  T
C344        N348   1.157       .  T
C345        N350   1.157       .  T
C346        N349   1.157       .  T
H354        C959   1.083       .  S
C355        C356   1.409       .  A
C355        C360   1.399       .  A
C355        C369   1.443       .  S
C356        C361   1.479       .  S
C356        C357   1.402       .  A
C357        C358   1.399       .  A
C357        H376   1.085   1_565  S
C358        C359   1.411       .  A
C358        C370   1.444   1_565  S
C359        C360   1.404       .  A
C360        H375   1.085       .  S
C361        C362   1.401       .  A
C361        C366   1.408       .  A
C362        C363   1.400       .  A
C362        H377   1.085       .  S
C363        C364   1.415       .  A
C363        C367   1.444       .  S
C364        C365   1.405       .  A
C365        C366   1.400       .  A
C365        H378   1.085       .  S
C366        C368   1.444   1_565  S
C367        N371   1.157       .  T
C368        N372   1.157       .  T
C369        N374   1.157       .  T
C370        N373   1.157       .  T
C379        C380   1.407       .  A
C379        C384   1.398       .  A
C379        C393   1.445       .  S
C380        C385   1.485       .  S
C380        C381   1.403       .  A
C381        C382   1.407       .  A
C381        H400   1.085       .  S
C382        C383   1.419       .  A
C382        C394   1.443       .  S
C383        C384   1.409       .  A
C384        H399   1.084       .  S
C385        C386   1.403       .  A
C385        C390   1.412       .  A
C386        C387   1.401       .  A
C386        H401   1.085   1_565  S
C387        C388   1.410       .  A
C387        C391   1.443   1_565  S
C388        C389   1.404       .  A
C389        C390   1.403       .  A
C389        H402   1.085       .  S
C390        C392   1.444       .  S
C391        N395   1.157       .  T
C392        N396   1.157       .  T
C393        N398   1.157       .  T
C394        N397   1.157   1_565  T
C403       C1022   1.406   1_545  A
C403       C1026   1.401       .  A
C403        C417   1.444       .  S
C404        C409   1.482       .  S
C404        C405   1.401       .  A
C404       C1021   1.407   1_564  A
C405        C406   1.402       .  A
C405        H424   1.085       .  S
C406        C407   1.417       .  A
C406        C418   1.443       .  S
C407        C408   1.410   1_564  A
C408       C1021   1.400       .  A
C408       H1041   1.084       .  S
C409        C414   1.406   1_565  A
C409       C1028   1.400   1_554  A
C410        C411   1.402       .  A
C410       C1027   1.400       .  A
C410        H425   1.085       .  S
C411       C1030   1.419       .  A
C411        C415   1.444       .  S
C412        C665   1.491       .  S
C412        C413   1.407   1_565  A
C412       C1029   1.419   1_554  A
C413        C414   1.402       .  A
C413        H426   1.082       .  S
C414        C416   1.443       .  S
C415        N419   1.157       .  T
C416        N420   1.157       .  T
C417        N422   1.157       .  T
C418        N421   1.157       .  T
H423       C1026   1.084       .  S
C427        C428   1.410       .  A
C427        C432   1.398       .  A
C427        C441   1.445       .  S
C428        C433   1.485       .  S
C428        C429   1.404       .  A
C429        C430   1.404       .  A
C429        H448   1.085   1_565  S
C430        C431   1.415       .  A
C430        C442   1.444   1_565  S
C431        C432   1.406       .  A
C432        H447   1.085       .  S
C433        C434   1.403   1_565  A
C433        C438   1.412       .  A
C434        C435   1.400       .  A
C434        H449   1.085       .  S
C435        C436   1.409   1_545  A
C435        C439   1.443       .  S
C436        C437   1.403       .  A
C437        C438   1.402       .  A
C437        H450   1.084       .  S
C438        C440   1.444       .  S
C439        N443   1.157       .  T
C440        N444   1.157       .  T
C441        N446   1.157       .  T
C442        N445   1.157       .  T
C451        C452   1.408       .  A
C451        C456   1.397       .  A
C451        C465   1.445       .  S
C452        C457   1.486       .  S
C452        C453   1.403       .  A
C453        C454   1.404       .  A
C453        H472   1.085   1_565  S
C454        C455   1.417       .  A
C454        C466   1.442   1_565  S
C455        C456   1.409       .  A
C456        H471   1.085       .  S
C457        C458   1.404       .  A
C457        C462   1.413   1_565  A
C458        C459   1.399       .  A
C458        H473   1.085       .  S
C459        C460   1.409       .  A
C459        C463   1.444       .  S
C460        C461   1.402   1_565  A
C461        C462   1.401       .  A
C461        H474   1.085       .  S
C462        C464   1.444       .  S
C463        N467   1.157       .  T
C464        N468   1.157       .  T
C465        N470   1.157       .  T
C466        N469   1.157       .  T
C475        C476   1.407       .  A
C475        C480   1.398       .  A
C475        C489   1.445       .  S
C476        C481   1.483       .  S
C476        C477   1.402       .  A
C477        C478   1.404       .  A
C477       H1114   1.085       .  S
C478        C479   1.418       .  A
C478       C1108   1.444       .  S
C479        C480   1.409       .  A
C480        H495   1.083       .  S
C481        C486   1.406       .  A
C481       C1100   1.401       .  A
C482        C483   1.403       .  A
C482       C1099   1.401   1_554  A
C482        H497   1.085       .  S
C483       C1102   1.420       .  A
C483        C487   1.444       .  S
C484        C625   1.495       .  S
C484        C485   1.410       .  A
C484       C1101   1.420       .  A
C485        C486   1.398       .  A
C485        H498   1.084       .  S
C486        C488   1.444       .  S
C487        N491   1.157       .  T
C488        N492   1.157       .  T
C489        N494   1.157       .  T
C490       C1096   1.444       .  S
C490        N493   1.157       .  T
H496       C1095   1.085       .  S
C499        C500   1.410       .  A
C499        C504   1.401       .  A
C499        C513   1.444       .  S
C500        C505   1.479       .  S
C500        C501   1.400       .  A
C501        C502   1.397       .  A
C501        H520   1.085       .  S
C502        C503   1.413       .  A
C502        C514   1.444       .  S
C503        C504   1.404       .  A
C504        H519   1.085       .  S
C505        C506   1.402       .  A
C505        C510   1.410       .  A
C506        C507   1.398       .  A
C506        H521   1.085       .  S
C507        C508   1.411       .  A
C507        C511   1.444       .  S
C508        C509   1.403       .  A
C509        C510   1.398       .  A
C509        H522   1.085       .  S
C510        C512   1.444       .  S
C511        N515   1.157       .  T
C512        N516   1.157       .  T
C513        N518   1.157       .  T
C514        N517   1.157       .  T
C523        C524   1.406       .  A
C523        C528   1.395       .  A
C523        C537   1.445       .  S
C524        C529   1.480       .  S
C524        C525   1.402       .  A
C525        C526   1.405       .  A
C525        H544   1.085       .  S
C526        C527   1.416       .  A
C526        C538   1.443       .  S
C527        C528   1.407       .  A
C528        H543   1.084       .  S
C529        C530   1.402       .  A
C529        C534   1.410       .  A
C530        C531   1.399       .  A
C530        H545   1.085       .  S
C531        C532   1.409       .  A
C531        C535   1.444       .  S
C532        C533   1.402       .  A
C533        C534   1.400       .  A
C533        H546   1.085       .  S
C534        C536   1.443       .  S
C535        N539   1.157       .  T
C536        N540   1.157       .  T
C537        N542   1.157       .  T
C538        N541   1.157       .  T
C547       C1166   1.409       .  A
C547       C1170   1.399       .  A
C547        C561   1.444       .  S
C548        C553   1.487       .  S
C548        C549   1.402       .  A
C548       C1165   1.409       .  A
C549        C550   1.403       .  A
C549        H568   1.085       .  S
C550        C551   1.420       .  A
C550        C562   1.443       .  S
C551        C552   1.408       .  A
C552       C1165   1.399       .  A
C552       H1185   1.083       .  S
C553        C554   1.400       .  A
C553       C1176   1.410   1_554  A
C554        C555   1.399       .  A
C554        H569   1.085       .  S
C555        C556   1.421       .  A
C555        C559   1.445       .  S
C556       C1175   1.408   1_554  A
C557        C558   1.402       .  A
C557       C1174   1.408       .  A
C557        H570   1.084       .  S
C558       C1171   1.410       .  A
C558        C560   1.444       .  S
C559        N563   1.158       .  T
C560        N564   1.157       .  T
C561        N566   1.157       .  T
C562        N565   1.157       .  T
H567       C1170   1.083       .  S
C571        C572   1.412       .  A
C571        C576   1.399       .  A
C571        C585   1.443       .  S
C572        C577   1.483       .  S
C572        C573   1.404       .  A
C573        C574   1.399       .  A
C573        H592   1.085       .  S
C574        C575   1.408       .  A
C574        C586   1.444       .  S
C575        C576   1.401       .  A
C576        H591   1.085       .  S
C577        C578   1.403       .  A
C577        C582   1.408       .  A
C578        C579   1.404       .  A
C578        H593   1.085       .  S
C579        C580   1.417       .  A
C579        C583   1.443       .  S
C580        C581   1.409       .  A
C581        C582   1.396       .  A
C581        H594   1.084       .  S
C582        C584   1.445       .  S
C583        N587   1.157       .  T
C584        N588   1.157       .  T
C585        N590   1.157       .  T
C586        N589   1.157       .  T
C595        C596   1.409       .  A
C595        C600   1.398       .  A
C595        C609   1.444       .  S
C596        C601   1.477       .  S
C596        C597   1.401       .  A
C597        C598   1.398       .  A
C597        H616   1.085       .  S
C598        C599   1.414       .  A
C598        C610   1.445       .  S
C599        C600   1.404       .  A
C600        H615   1.085       .  S
C601        C602   1.403       .  A
C601        C606   1.410       .  A
C602        C603   1.397       .  A
C602        H617   1.085       .  S
C603        C604   1.408       .  A
C603        C607   1.444       .  S
C604        C605   1.401       .  A
C605        C606   1.398       .  A
C605        H618   1.085       .  S
C606        C608   1.444       .  S
C607        N611   1.157       .  T
C608        N612   1.157       .  T
C609        N614   1.157       .  T
C610        N613   1.157       .  T
C619        N620   1.358       .  A
C619       C1174   1.493       .  S
N620        C621   1.354       .  A
C621       C1217   1.476       .  S
N622        C623   1.356   1_554  A
C623        N624   1.362       .  A
C623       C1198   1.491       .  S
C625        N626   1.364       .  A
N626        C627   1.362       .  A
C627       C1145   1.487       .  S
N628        C629   1.352   1_554  A
C629        N630   1.355       .  A
C629       C1121   1.475       .  S
N631        C636   1.352       .  A
N631        C635   1.352       .  A
N631        H663   1.034       .  S
N632        C639   1.350       .  A
N632        C640   1.349       .  A
N633        C638   1.353       .  A
N633        C637   1.352       .  A
N633        H664   1.035       .  S
N634        C641   1.348       .  A
N634        C642   1.350       .  A
C635        C643   1.387       .  A
C635        C651   1.414       .  A
C636        C652   1.414       .  A
C636        C644   1.387       .  A
C637        C645   1.387       .  A
C637        C654   1.414       .  A
C638        C653   1.414       .  A
C638        C646   1.387       .  A
C639        C651   1.409       .  A
C639        C647   1.385       .  A
C640        C654   1.411       .  A
C640        C648   1.387       .  A
C641        C649   1.387       .  A
C641        C652   1.410       .  A
C642        C650   1.385       .  A
C642        C653   1.409       .  A
C643        C644   1.376       .  A
C643        H655   1.082       .  S
C644        H656   1.082       .  S
C645        C646   1.374       .  A
C645        H657   1.082       .  S
C646        H658   1.082       .  S
C647        C648   1.372       .  A
C647        H659   1.082       .  S
C648        H660   1.082       .  S
C649        C650   1.373       .  A
C649        H661   1.082       .  S
C650        H662   1.082       .  S
C651       C1150   1.484       .  S
C652       C1222   1.479       .  S
C653       C1193   1.483       .  S
C654       C1126   1.485       .  S
C665        N670   1.360   1_554  A
N666        C667   1.362       .  A
C667       C1073   1.491       .  S
N668        C669   1.354   1_554  A
C669        N670   1.357       .  A
C669       C1049   1.483       .  S
C671        N676   1.359   1_554  A
C671        C953   1.492   1_554  S
N672        C673   1.363       .  A
C673       C1001   1.494       .  S
N674        C675   1.355   1_554  A
C675        N676   1.356       .  A
C675        C982   1.479       .  S
N677        C682   1.354       .  A
N677        C681   1.353       .  A
N677        H709   1.035       .  S
N678        C685   1.350       .  A
N678        C686   1.351       .  A
N679        C684   1.352       .  A
N679        C683   1.353       .  A
N679        H710   1.036       .  S
N680        C687   1.352       .  A
N680        C688   1.351       .  A
C681        C689   1.388       .  A
C681        C697   1.418       .  A
C682        C698   1.417       .  A
C682        C690   1.387       .  A
C683        C691   1.387       .  A
C683        C700   1.415       .  A
C684        C699   1.416       .  A
C684        C692   1.387       .  A
C685        C697   1.414       .  A
C685        C693   1.387       .  A
C686        C700   1.412       .  A
C686        C694   1.385       .  A
C687        C695   1.385       .  A
C687        C698   1.412       .  A
C688        C696   1.387       .  A
C688        C699   1.414       .  A
C689        C690   1.374       .  A
C689        H701   1.082       .  S
C690        H702   1.082       .  S
C691        C692   1.374       .  A
C691        H703   1.082       .  S
C692        H704   1.082       .  S
C693        C694   1.373       .  A
C693        H705   1.082       .  S
C694        H706   1.082       .  S
C695        C696   1.373       .  A
C695        H707   1.082       .  S
C696        H708   1.082       .  S
C697       C1078   1.485       .  S
C698       C1006   1.490       .  S
C699        C977   1.487       .  S
C700       C1054   1.487       .  S
C711        N716   1.368       .  A
N712        C713   1.357       .  A
C713        C929   1.489       .  S
N714        C715   1.356       .  A
C715        N716   1.365       .  A
C715        C910   1.498       .  S
C717        N718   1.359       .  A
C717        C809   1.483       .  S
N718        C719   1.356       .  A
C719        N720   1.353       .  A
C719        C862   1.484       .  S
C721        N722   1.362       .  A
C721        C833   1.488       .  S
N723        C728   1.354       .  A
N723        C727   1.352       .  A
N723        H755   1.033       .  S
N724        C731   1.350       .  A
N724        C732   1.353       .  A
N725        C730   1.352       .  A
N725        C729   1.355       .  A
N725        H756   1.034       .  S
N726        C733   1.352       .  A
N726        C734   1.350       .  A
C727        C735   1.389       .  A
C727        C743   1.419       .  A
C728        C744   1.417       .  A
C728        C736   1.386       .  A
C729        C737   1.387       .  A
C729        C746   1.418       .  A
C730        C745   1.417       .  A
C730        C738   1.387       .  A
C731        C743   1.415       .  A
C731        C739   1.387       .  A
C732        C746   1.413       .  A
C732        C740   1.385       .  A
C733        C741   1.385       .  A
C733        C744   1.411       .  A
C734        C742   1.387       .  A
C734        C745   1.414       .  A
C735        C736   1.376       .  A
C735        H747   1.082       .  S
C736        H748   1.082       .  S
C737        C738   1.377       .  A
C737        H749   1.082       .  S
C738        H750   1.082       .  S
C739        C740   1.373       .  A
C739        H751   1.082   1_655  S
C740        H752   1.082   1_655  S
C741        C742   1.371       .  A
C741        H753   1.082       .  S
C742        H754   1.082       .  S
C743        C934   1.487       .  S
C744        C838   1.488       .  S
C745        C857   1.484       .  S
C746        C905   1.493       .  S
O757       Mg759   2.147       .  S
O757        C792   1.235       .  S
C758        H797   1.081       .  S
C758        O771   1.236       .  S
C758        O795   1.270       .  A
Mg759       O799   2.269       .  S
Mg759       O770   2.302       .  S
O760       Mg785   2.144   1_545  S
O760        C781   1.235       .  S
O761        C792   1.269       .  A
O761       Mg785   2.297   1_655  S
C762        C886   1.499       .  S
C762        O764   1.273       .  A
C762        O776   1.278   1_655  A
O763        C791   1.269       .  A
O763       Mg765   2.299       .  S
O764       Mg796   2.271       .  S
Mg765       O771   2.141   1_655  S
Mg765       O779   2.250       .  S
C766       C1169   1.494       .  S
C766        O804   1.275       .  A
C766        O772   1.275       .  A
O767        C774   1.275       .  A
H768        C781   1.081       .  S
C769        H794   1.081       .  S
C769        O783   1.235       .  S
C769        O784   1.269   1_455  A
O770        C793   1.270   1_565  A
C773        C958   1.494       .  S
C773        O786   1.275   1_565  A
C773        O778   1.273       .  A
C774        C814   1.492       .  S
C774        O801   1.273   1_655  A
Mg775       O782   2.154   1_455  S
Mg775       O777   2.297       .  S
Mg775       O804   2.275       .  S
O777        C781   1.269       .  A
O779        C798   1.272       .  A
O780        C800   1.276   1_545  A
O782        C793   1.236       .  S
O783       Mg802   2.156       .  S
O784       Mg796   2.298       .  S
Mg785       O801   2.269       .  S
O786       Mg802   2.285       .  S
H787        C792   1.081       .  S
O788       Mg796   2.153   1_565  S
O788        C791   1.235       .  S
H789        C791   1.081       .  S
H790        C793   1.081       .  S
O795       Mg802   2.297   1_565  S
C798       C1097   1.492       .  S
C798        O803   1.277       .  A
O799        C800   1.273       .  A
C800       C1025   1.493       .  S
C805        C810   1.401       .  A
C805        C819   1.444       .  S
C806        C811   1.488       .  S
C806        C807   1.402       .  A
C807        C808   1.400       .  A
C807        H826   1.085   1_655  S
C808        C809   1.416       .  A
C808        C820   1.444   1_655  S
C810        H825   1.084       .  S
C811        C812   1.403       .  A
C812        C813   1.401       .  A
C812        H827   1.085       .  S
C813        C814   1.416       .  A
C813        C817   1.443       .  S
C815        C816   1.400       .  A
C815        H828   1.081       .  S
C816        C818   1.445       .  S
C817        N821   1.157       .  T
C818        N822   1.157       .  T
C819        N824   1.157       .  T
C820        N823   1.157       .  T
C829        C830   1.407       .  A
C829        C834   1.394       .  A
C829        C843   1.445       .  S
C830        C835   1.483       .  S
C830        C831   1.404       .  A
C831        C832   1.407       .  A
C831        H850   1.085       .  S
C832        C833   1.416       .  A
C832        C844   1.443       .  S
C833        C834   1.407       .  A
C834        H849   1.085       .  S
C835        C836   1.403       .  A
C835        C840   1.411       .  A
C836        C837   1.402       .  A
C836        H851   1.085       .  S
C837        C838   1.410       .  A
C837        C841   1.443       .  S
C838        C839   1.402       .  A
C839        C840   1.400       .  A
C839        H852   1.085   1_655  S
C840        C842   1.444   1_655  S
C841        N845   1.157       .  T
C842        N846   1.157       .  T
C843        N848   1.157       .  T
C844        N847   1.157       .  T
C853        C854   1.410       .  A
C853        C858   1.397       .  A
C853        C867   1.444   1_655  S
C854        C859   1.477       .  S
C854        C855   1.402       .  A
C855        C856   1.399       .  A
C855        H874   1.085       .  S
C856        C857   1.410       .  A
C856        C868   1.443       .  S
C857        C858   1.402       .  A
C858        H873   1.085   1_655  S
C859        C860   1.400       .  A
C859        C864   1.407       .  A
C860        C861   1.399       .  A
C860        H875   1.085       .  S
C861        C862   1.418       .  A
C861        C865   1.444       .  S
C862        C863   1.406       .  A
C863        C864   1.398       .  A
C863        H876   1.082       .  S
C864        C866   1.444       .  S
C866        N870   1.157   1_655  T
C867        N872   1.157       .  T
C868        N871   1.157       .  T
C877        C878   1.407       .  A
C877        C882   1.402       .  A
C877        C891   1.444   1_655  S
C878        C883   1.492       .  S
C879        C880   1.406       .  A
C879        H898   1.085       .  S
C880        C892   1.443       .  S
C881        C882   1.411       .  A
C882        H897   1.081   1_655  S
C883        C888   1.408       .  A
C884        C885   1.405       .  A
C884        H899   1.085       .  S
C885        C889   1.443       .  S
C886        C887   1.411       .  A
C887        C888   1.403       .  A
C887        H900   1.084       .  S
C888        C890   1.444       .  S
C889        N893   1.157       .  T
C890        N894   1.157       .  T
C891        N896   1.157       .  T
C892        N895   1.157       .  T
C901        C902   1.411   1_455  A
C901        C906   1.404       .  A
C901        C915   1.443       .  S
C902        C907   1.488       .  S
C902        C903   1.403       .  A
C903        C904   1.403       .  A
C903        H922   1.085       .  S
C904        C905   1.411       .  A
C904        C916   1.443       .  S
C905        C906   1.404   1_655  A
C906        H921   1.084       .  S
C907        C908   1.405   1_655  A
C907        C912   1.406       .  A
C908        C909   1.410       .  A
C908        H923   1.084       .  S
C909        C910   1.418   1_455  A
C909        C913   1.443       .  S
C910        C911   1.410       .  A
C911        C912   1.397       .  A
C911        H924   1.084       .  S
C912        C914   1.445       .  S
C913        N917   1.157       .  T
C914        N918   1.157       .  T
C915        N920   1.157       .  T
C916        N919   1.157       .  T
C925        C926   1.406       .  A
C925        C930   1.398       .  A
C925        C939   1.445       .  S
C926        C931   1.478       .  S
C926        C927   1.400       .  A
C927        C928   1.402       .  A
C927        H946   1.085   1_655  S
C928        C929   1.417       .  A
C928        C940   1.442   1_655  S
C929        C930   1.409       .  A
C930        H945   1.084       .  S
C931        C932   1.402   1_655  A
C931        C936   1.409       .  A
C932        C933   1.399       .  A
C932        H947   1.085       .  S
C933        C934   1.410   1_455  A
C933        C937   1.444       .  S
C934        C935   1.403       .  A
C935        C936   1.399       .  A
C935        H948   1.085       .  S
C936        C938   1.443       .  S
C937        N941   1.157       .  T
C938        N942   1.157       .  T
C939        N944   1.157       .  T
C940        N943   1.157       .  T
C949        C950   1.408       .  A
C949        C954   1.400       .  A
C949        C963   1.444   1_565  S
C950        C955   1.486       .  S
C951        C952   1.403       .  A
C951        H970   1.085       .  S
C952        C964   1.444       .  S
C953        C954   1.410       .  A
C954        H969   1.084       .  S
C955        C956   1.400       .  A
C956        C957   1.401       .  A
C956        H971   1.085       .  S
C957        C958   1.419       .  A
C957        C961   1.442       .  S
C958        C959   1.408   1_565  A
C960        C962   1.444       .  S
C961        N965   1.156       .  T
C962        N966   1.157       .  T
C963        N968   1.157       .  T
C964        N967   1.157       .  T
C973        C974   1.409       .  A
C973        C978   1.399       .  A
C973        C987   1.443       .  S
C974        C979   1.478       .  S
C974        C975   1.402       .  A
C975        C976   1.398       .  A
C975        H994   1.085   1_565  S
C976        C977   1.411       .  A
C976        C988   1.444   1_565  S
C977        C978   1.404       .  A
C978        H993   1.085       .  S
C979        C980   1.401       .  A
C979        C984   1.408       .  A
C980        C981   1.400       .  A
C980        H995   1.085       .  S
C981        C982   1.414       .  A
C981        C985   1.444       .  S
C982        C983   1.405       .  A
C983        C984   1.399       .  A
C983        H996   1.085       .  S
C984        C986   1.444   1_565  S
C985        N989   1.157       .  T
C986        N990   1.157       .  T
C987        N992   1.157       .  T
C988        N991   1.157       .  T
C997        C998   1.407       .  A
C997       C1002   1.398       .  A
C997       C1011   1.445       .  S
C998       C1003   1.485       .  S
C998        C999   1.403       .  A
C999       C1000   1.406       .  A
C999       H1018   1.085       .  S
C1000      C1001   1.419       .  A
C1000      C1012   1.443       .  S
C1001      C1002   1.409       .  A
C1002      H1017   1.084       .  S
C1003      C1004   1.403       .  A
C1003      C1008   1.411       .  A
C1004      C1005   1.401       .  A
C1004      H1019   1.085   1_565  S
C1005      C1006   1.410       .  A
C1005      C1009   1.443   1_565  S
C1006      C1007   1.404       .  A
C1007      C1008   1.402       .  A
C1007      H1020   1.085       .  S
C1008      C1010   1.443       .  S
C1009      N1013   1.157       .  T
C1010      N1014   1.157       .  T
C1011      N1016   1.157       .  T
C1012      N1015   1.157   1_565  T
C1021      C1035   1.444       .  S
C1022      C1027   1.482       .  S
C1022      C1023   1.401       .  A
C1023      C1024   1.402       .  A
C1023      H1042   1.085       .  S
C1024      C1025   1.418       .  A
C1024      C1036   1.444       .  S
C1025      C1026   1.411   1_565  A
C1027      C1032   1.406   1_565  A
C1028      C1029   1.402       .  A
C1028      H1043   1.085       .  S
C1029      C1033   1.444       .  S
C1030      C1031   1.407   1_565  A
C1031      C1032   1.402       .  A
C1031      H1044   1.082       .  S
C1032      C1034   1.443       .  S
C1033      N1037   1.157       .  T
C1034      N1038   1.157       .  T
C1035      N1040   1.157       .  T
C1036      N1039   1.157       .  T
C1045      C1046   1.410       .  A
C1045      C1050   1.398       .  A
C1045      C1059   1.445       .  S
C1046      C1051   1.485       .  S
C1046      C1047   1.404       .  A
C1047      C1048   1.403       .  A
C1047      H1066   1.085   1_565  S
C1048      C1049   1.414       .  A
C1048      C1060   1.444   1_565  S
C1049      C1050   1.406       .  A
C1050      H1065   1.085       .  S
C1051      C1052   1.403   1_565  A
C1051      C1056   1.412       .  A
C1052      C1053   1.400       .  A
C1052      H1067   1.085       .  S
C1053      C1054   1.409   1_545  A
C1053      C1057   1.443       .  S
C1054      C1055   1.403       .  A
C1055      C1056   1.402       .  A
C1055      H1068   1.084       .  S
C1056      C1058   1.444       .  S
C1057      N1061   1.157       .  T
C1058      N1062   1.157       .  T
C1059      N1064   1.157       .  T
C1060      N1063   1.157       .  T
C1069      C1070   1.408       .  A
C1069      C1074   1.398       .  A
C1069      C1083   1.445       .  S
C1070      C1075   1.486       .  S
C1070      C1071   1.403       .  A
C1071      C1072   1.404       .  A
C1071      H1090   1.085   1_565  S
C1072      C1073   1.417       .  A
C1072      C1084   1.442   1_565  S
C1073      C1074   1.409       .  A
C1074      H1089   1.085       .  S
C1075      C1076   1.404       .  A
C1075      C1080   1.413   1_565  A
C1076      C1077   1.399       .  A
C1076      H1091   1.085       .  S
C1077      C1078   1.409       .  A
C1077      C1081   1.444       .  S
C1078      C1079   1.402   1_565  A
C1079      C1080   1.401       .  A
C1079      H1092   1.085       .  S
C1080      C1082   1.444       .  S
C1081      N1085   1.157       .  T
C1082      N1086   1.157       .  T
C1083      N1088   1.157       .  T
C1084      N1087   1.157       .  T
C1093      C1094   1.407       .  A
C1093      C1098   1.398       .  A
C1093      C1107   1.445       .  S
C1094      C1099   1.483       .  S
C1094      C1095   1.402       .  A
C1095      C1096   1.404       .  A
C1096      C1097   1.418       .  A
C1097      C1098   1.409       .  A
C1098      H1113   1.083       .  S
C1099      C1104   1.406       .  A
C1100      C1101   1.404       .  A
C1100      H1115   1.085       .  S
C1101      C1105   1.444       .  S
C1102      C1103   1.410   1_554  A
C1103      C1104   1.398       .  A
C1103      H1116   1.084       .  S
C1104      C1106   1.444       .  S
C1105      N1109   1.157       .  T
C1106      N1110   1.157       .  T
C1107      N1112   1.157       .  T
C1108      N1111   1.157       .  T
C1117      C1118   1.410       .  A
C1117      C1122   1.401       .  A
C1117      C1131   1.444       .  S
C1118      C1123   1.479       .  S
C1118      C1119   1.400       .  A
C1119      C1120   1.397       .  A
C1119      H1138   1.085       .  S
C1120      C1121   1.413       .  A
C1120      C1132   1.444       .  S
C1121      C1122   1.404       .  A
C1122      H1137   1.085       .  S
C1123      C1124   1.402       .  A
C1123      C1128   1.410       .  A
C1124      C1125   1.398       .  A
C1124      H1139   1.085       .  S
C1125      C1126   1.411       .  A
C1125      C1129   1.444       .  S
C1126      C1127   1.403       .  A
C1127      C1128   1.398       .  A
C1127      H1140   1.085       .  S
C1128      C1130   1.444       .  S
C1129      N1133   1.157       .  T
C1130      N1134   1.157       .  T
C1131      N1136   1.157       .  T
C1132      N1135   1.157       .  T
C1141      C1142   1.407       .  A
C1141      C1146   1.395       .  A
C1141      C1155   1.445       .  S
C1142      C1147   1.480       .  S
C1142      C1143   1.402       .  A
C1143      C1144   1.405       .  A
C1143      H1162   1.085       .  S
C1144      C1145   1.416       .  A
C1144      C1156   1.443       .  S
C1145      C1146   1.407       .  A
C1146      H1161   1.084       .  S
C1147      C1148   1.402       .  A
C1147      C1152   1.411       .  A
C1148      C1149   1.399       .  A
C1148      H1163   1.085       .  S
C1149      C1150   1.409       .  A
C1149      C1153   1.444       .  S
C1150      C1151   1.402       .  A
C1151      C1152   1.400       .  A
C1151      H1164   1.085       .  S
C1152      C1154   1.444       .  S
C1153      N1157   1.157       .  T
C1154      N1158   1.157       .  T
C1155      N1160   1.157       .  T
C1156      N1159   1.157       .  T
C1165      C1179   1.444       .  S
C1166      C1171   1.487       .  S
C1166      C1167   1.402       .  A
C1167      C1168   1.403       .  A
C1167      H1186   1.085       .  S
C1168      C1169   1.420       .  A
C1168      C1180   1.443       .  S
C1169      C1170   1.408       .  A
C1171      C1172   1.400       .  A
C1172      C1173   1.400       .  A
C1172      H1187   1.085       .  S
C1173      C1174   1.422       .  A
C1173      C1177   1.445       .  S
C1175      C1176   1.402       .  A
C1175      H1188   1.084       .  S
C1176      C1178   1.444       .  S
C1177      N1181   1.158       .  T
C1178      N1182   1.157       .  T
C1179      N1184   1.157       .  T
C1180      N1183   1.157       .  T
C1189      C1190   1.412       .  A
C1189      C1194   1.399       .  A
C1189      C1203   1.443       .  S
C1190      C1195   1.484       .  S
C1190      C1191   1.404       .  A
C1191      C1192   1.399       .  A
C1191      H1210   1.085       .  S
C1192      C1193   1.408       .  A
C1192      C1204   1.444       .  S
C1193      C1194   1.401       .  A
C1194      H1209   1.085       .  S
C1195      C1196   1.403       .  A
C1195      C1200   1.408       .  A
C1196      C1197   1.404       .  A
C1196      H1211   1.085       .  S
C1197      C1198   1.417       .  A
C1197      C1201   1.443       .  S
C1198      C1199   1.409       .  A
C1199      C1200   1.396       .  A
C1199      H1212   1.084       .  S
C1200      C1202   1.445       .  S
C1201      N1205   1.157       .  T
C1202      N1206   1.157       .  T
C1203      N1208   1.157       .  T
C1204      N1207   1.157       .  T
C1213      C1214   1.409       .  A
C1213      C1218   1.398       .  A
C1213      C1227   1.444       .  S
C1214      C1219   1.477       .  S
C1214      C1215   1.401       .  A
C1215      C1216   1.398       .  A
C1215      H1234   1.085       .  S
C1216      C1217   1.414       .  A
C1216      C1228   1.445       .  S
C1217      C1218   1.404       .  A
C1218      H1233   1.085       .  S
C1219      C1220   1.403       .  A
C1219      C1224   1.410       .  A
C1220      C1221   1.397       .  A
C1220      H1235   1.085       .  S
C1221      C1222   1.408       .  A
C1221      C1225   1.444       .  S
C1222      C1223   1.402       .  A
C1223      C1224   1.398       .  A
C1223      H1236   1.085       .  S
C1224      C1226   1.444       .  S
C1225      N1229   1.157       .  T
C1226      N1230   1.157       .  T
C1227      N1232   1.157       .  T
C1228      N1231   1.157       .  T
